xflr5 v6.61

 Calculated polar for: E63_10_00

 1 1 Reynolds number fixed          Mach number fixed         

 xtrf =   1.000 (top)        1.000 (bottom)
 Mach =   0.200     Re =     0.100 e 6     Ncrit =   7.000

  alpha     CL        CD       CDp       Cm    Top Xtr Bot Xtr   Cpmin    Chinge    XCp    
 ------- -------- --------- --------- -------- ------- ------- -------- --------- ---------
 -27.500  -0.7773   0.32294   0.31673   0.0523  1.0000  0.0229  -1.6091   0.0000   0.0000   0.0000   0.2886
 -27.000  -0.7633   0.31785   0.31162   0.0487  1.0000  0.0235  -1.5539   0.0000   0.0000   0.0000   0.2860
 -26.500  -0.7491   0.31288   0.30663   0.0449  1.0000  0.0243  -1.5159   0.0000   0.0000   0.0000   0.2830
 -26.000  -0.7346   0.30787   0.30161   0.0412  1.0000  0.0251  -1.5028   0.0000   0.0000   0.0000   0.2799
 -25.500  -0.7200   0.30282   0.29655   0.0374  1.0000  0.0260  -1.4925   0.0000   0.0000   0.0000   0.2767
 -25.000  -0.7051   0.29781   0.29154   0.0337  1.0000  0.0269  -1.4881   0.0000   0.0000   0.0000   0.2731
 -24.500  -0.6902   0.29342   0.28715   0.0296  1.0000  0.0277  -1.5010   0.0000   0.0000   0.0000   0.2689
 -24.000  -0.6766   0.29063   0.28436   0.0251  1.0000  0.0281  -1.5323   0.0000   0.0000   0.0000   0.2639
 -23.500  -0.6650   0.28922   0.28294   0.0205  1.0000  0.0283  -1.5681   0.0000   0.0000   0.0000   0.2584
 -23.000  -0.6481   0.27988   0.27362   0.0181  1.0000  0.0286  -1.5396   0.0000   0.0000   0.0000   0.2558
 -22.500  -0.6308   0.27155   0.26529   0.0163  1.0000  0.0295  -1.4570   0.0000   0.0000   0.0000   0.2544
 -22.000  -0.6153   0.26600   0.25975   0.0136  1.0000  0.0304  -1.4247   0.0000   0.0000   0.0000   0.2512
 -21.500  -0.5998   0.26068   0.25443   0.0107  1.0000  0.0313  -1.4073   0.0000   0.0000   0.0000   0.2476
 -21.000  -0.5845   0.25534   0.24908   0.0079  1.0000  0.0323  -1.3948   0.0000   0.0000   0.0000   0.2437
 -20.500  -0.5691   0.24998   0.24374   0.0051  1.0000  0.0334  -1.3847   0.0000   0.0000   0.0000   0.2396
 -20.000  -0.5539   0.24461   0.23839   0.0023  1.0000  0.0345  -1.3769   0.0000   0.0000   0.0000   0.2353
 -19.500  -0.5388   0.23928   0.23307  -0.0005  1.0000  0.0357  -1.3752   0.0000   0.0000   0.0000   0.2307
 -19.000  -0.5244   0.23432   0.22814  -0.0036  1.0000  0.0366  -1.3898   0.0000   0.0000   0.0000   0.2253
 -18.500  -0.5116   0.23010   0.22395  -0.0068  1.0000  0.0371  -1.4200   0.0000   0.0000   0.0000   0.2191
 -18.000  -0.5009   0.22652   0.22041  -0.0102  1.0000  0.0373  -1.4569   0.0000   0.0000   0.0000   0.2128
 -17.500  -0.4902   0.22217   0.21612  -0.0131  1.0000  0.0374  -1.4807   0.0000   0.0000   0.0000   0.2069
 -17.000  -0.4675   0.21159   0.20553  -0.0127  1.0000  0.0384  -1.3476   0.0000   0.0000   0.0000   0.2064
 -16.500  -0.4521   0.20576   0.19972  -0.0140  1.0000  0.0397  -1.3149   0.0000   0.0000   0.0000   0.2028
 -16.000  -0.4379   0.20028   0.19428  -0.0156  1.0000  0.0417  -1.3066   0.0000   0.0000   0.0000   0.1985
 -15.500  -0.4252   0.19502   0.18906  -0.0176  1.0000  0.0444  -1.3322   0.0000   0.0000   0.0000   0.1931
 -15.000  -0.4195   0.19198   0.18608  -0.0211  1.0000  0.0458  -1.4489   0.0000   0.0000   0.0000   0.1848
 -14.500  -0.4186   0.18966   0.18383  -0.0242  1.0000  0.0461  -1.5656   0.0000   0.0000   0.0000   0.1780
 -14.000  -0.3907   0.17797   0.17218  -0.0224  1.0000  0.0475  -1.4115   0.0000   0.0000   0.0000   0.1782
 -13.500  -0.3772   0.17219   0.16640  -0.0229  1.0000  0.0493  -1.3767   0.0000   0.0000   0.0000   0.1752
 -13.000  -0.3659   0.16670   0.16097  -0.0237  1.0000  0.0515  -1.3724   0.0000   0.0000   0.0000   0.1713
 -11.500  -0.2739   0.14764   0.14258  -0.0275  1.0000  0.0578  -1.2155   0.0000   0.0000   0.0000   0.1394
 -11.000  -0.2680   0.14264   0.13763  -0.0268  1.0000  0.0603  -1.1939   0.0000   0.0000   0.0000   0.1400
 -10.500  -0.2661   0.13773   0.13278  -0.0266  1.0000  0.0633  -1.2094   0.0000   0.0000   0.0000   0.1405
 -10.000  -0.2755   0.13376   0.12890  -0.0276  1.0000  0.0654  -1.3104   0.0000   0.0000   0.0000   0.1410
  -9.500  -0.2921   0.13020   0.12546  -0.0286  1.0000  0.0658  -1.4361   0.0000   0.0000   0.0000   0.1441
  -8.500  -0.3118   0.11896   0.11393  -0.0245  1.0000  0.0713  -1.4210   0.0000   0.0000   0.0000   0.1619
  -8.000  -0.3311   0.11624   0.11137  -0.0251  1.0000  0.0753  -1.5451   0.0000   0.0000   0.0000   0.1658
  -7.500  -0.3318   0.11058   0.10584  -0.0230  1.0000  0.0768  -1.5524   0.0000   0.0000   0.0000   0.1731
  -7.000  -0.3270   0.10570   0.10105  -0.0197  1.0000  0.0791  -1.5107   0.0000   0.0000   0.0000   0.1827
  -6.500  -0.3371   0.10197   0.09746  -0.0166  1.0000  0.0815  -1.5342   0.0000   0.0000   0.0000   0.1945
  -6.000  -0.3599   0.09900   0.09464  -0.0128  1.0000  0.0838  -1.5945   0.0000   0.0000   0.0000   0.2092
  -5.500  -0.3802   0.09439   0.09019  -0.0182  1.0000  0.0861  -1.7711   0.0000   0.0000   0.0000   0.1975
  -5.000  -0.3331   0.07812   0.07379  -0.0352  0.9898  0.0551  -2.0979   0.0000   0.0000   0.0000   0.1387
  -4.500  -0.2357   0.05207   0.04725  -0.0760  0.9805  0.0456  -2.7122   0.0000   0.0000   0.0000  -0.0814
  -4.000  -0.0939   0.03204   0.02528  -0.1120  0.9806  0.0503  -2.9414   0.0000   0.0000   0.0000  -0.9648
  -3.500   0.0017   0.02751   0.01957  -0.1218  0.9738  0.0642  -2.6712   0.0000   0.0000   0.0000  72.7071
  -3.000   0.0851   0.02577   0.01733  -0.1274  0.9641  0.0769  -2.3537   0.0000   0.0000   0.0000   1.7669
  -2.500   0.1665   0.02508   0.01649  -0.1325  0.9525  0.0983  -1.9716   0.0000   0.0000   0.0000   1.0536
  -2.000   0.2453   0.02456   0.01599  -0.1369  0.9384  0.1328  -1.5960   0.0000   0.0000   0.0000   0.8121
  -1.500   0.3244   0.02386   0.01533  -0.1410  0.9237  0.1785  -1.2429   0.0000   0.0000   0.0000   0.6867
  -1.000   0.4074   0.02303   0.01462  -0.1455  0.9101  0.2344  -0.9650   0.0000   0.0000   0.0000   0.6078
  -0.500   0.4812   0.02214   0.01392  -0.1481  0.8914  0.2956  -0.7703   0.0000   0.0000   0.0000   0.5574
   0.000   0.5576   0.02111   0.01320  -0.1508  0.8733  0.3807  -0.7518   0.0000   0.0000   0.0000   0.5193
   0.500   0.6395   0.01963   0.01222  -0.1539  0.8576  0.5287  -0.8401   0.0000   0.0000   0.0000   0.4888
   1.000   0.6967   0.01767   0.01117  -0.1508  0.8363  0.8709  -0.9162   0.0000   0.0000   0.0000   0.4640
   1.500   0.7720   0.01679   0.01001  -0.1526  0.8080  1.0000  -1.0152   0.0000   0.0000   0.0000   0.4446
   2.000   0.8555   0.01608   0.00907  -0.1559  0.7748  1.0000  -1.1291   0.0000   0.0000   0.0000   0.4286
   2.500   0.9408   0.01570   0.00842  -0.1598  0.7291  1.0000  -1.2550   0.0000   0.0000   0.0000   0.4156
   3.000   1.0139   0.01583   0.00822  -0.1614  0.6724  1.0000  -1.3796   0.0000   0.0000   0.0000   0.4044
   3.500   1.0722   0.01641   0.00843  -0.1606  0.6113  1.0000  -1.4960   0.0000   0.0000   0.0000   0.3943
   4.000   1.1237   0.01725   0.00891  -0.1586  0.5525  1.0000  -1.6145   0.0000   0.0000   0.0000   0.3851
   4.500   1.1697   0.01826   0.00957  -0.1557  0.4972  1.0000  -1.7332   0.0000   0.0000   0.0000   0.3764
   5.000   1.2131   0.01937   0.01041  -0.1526  0.4475  1.0000  -1.8557   0.0000   0.0000   0.0000   0.3685
   5.500   1.2557   0.02057   0.01142  -0.1494  0.4043  1.0000  -1.9786   0.0000   0.0000   0.0000   0.3610
   6.000   1.2971   0.02188   0.01250  -0.1462  0.3664  1.0000  -2.1318   0.0000   0.0000   0.0000   0.3540
   6.500   1.3377   0.02325   0.01372  -0.1429  0.3326  1.0000  -2.3025   0.0000   0.0000   0.0000   0.3475
   7.000   1.3775   0.02470   0.01519  -0.1396  0.3028  1.0000  -2.4744   0.0000   0.0000   0.0000   0.3413
   7.500   1.4160   0.02624   0.01667  -0.1361  0.2771  1.0000  -2.6471   0.0000   0.0000   0.0000   0.3353
   8.000   1.4528   0.02788   0.01831  -0.1324  0.2541  1.0000  -2.8185   0.0000   0.0000   0.0000   0.3296
   8.500   1.4887   0.02965   0.02007  -0.1287  0.2340  1.0000  -2.9908   0.0000   0.0000   0.0000   0.3241
   9.000   1.5183   0.03143   0.02189  -0.1241  0.2143  1.0000  -3.2397   0.0000   0.0000   0.0000   0.3186
   9.500   1.5417   0.03330   0.02393  -0.1188  0.1954  1.0000  -3.4810   0.0000   0.0000   0.0000   0.3131
  10.000   1.5603   0.03533   0.02617  -0.1132  0.1780  1.0000  -3.7149   0.0000   0.0000   0.0000   0.3078
  10.500   1.5770   0.03764   0.02866  -0.1077  0.1626  1.0000  -3.9458   0.0000   0.0000   0.0000   0.3027
  11.000   1.5928   0.04031   0.03148  -0.1027  0.1499  1.0000  -4.1762   0.0000   0.0000   0.0000   0.2980
  11.500   1.6066   0.04338   0.03477  -0.0980  0.1388  1.0000  -4.4246   0.0000   0.0000   0.0000   0.2936
  12.000   1.6181   0.04692   0.03867  -0.0936  0.1290  1.0000  -4.6679   0.0000   0.0000   0.0000   0.2895
  12.500   1.6252   0.05108   0.04319  -0.0896  0.1201  1.0000  -4.8916   0.0000   0.0000   0.0000   0.2858
  13.000   1.6276   0.05598   0.04846  -0.0862  0.1121  1.0000  -5.0918   0.0000   0.0000   0.0000   0.2827
  13.500   1.6248   0.06161   0.05440  -0.0835  0.1049  1.0000  -5.2688   0.0000   0.0000   0.0000   0.2801
  14.000   1.6162   0.06813   0.06120  -0.0820  0.0977  1.0000  -5.4175   0.0000   0.0000   0.0000   0.2784
  14.500   1.5973   0.07683   0.07044  -0.0822  0.0909  1.0000  -5.4924   0.0000   0.0000   0.0000   0.2780
  15.000   1.5823   0.08561   0.07948  -0.0835  0.0856  1.0000  -5.5818   0.0000   0.0000   0.0000   0.2782
  15.500   1.5521   0.09777   0.09216  -0.0876  0.0808  1.0000  -5.5537   0.0000   0.0000   0.0000   0.2808
  16.000   1.5338   0.10836   0.10293  -0.0921  0.0760  1.0000  -5.5931   0.0000   0.0000   0.0000   0.2833
  16.500   1.4811   0.12701   0.12216  -0.1031  0.0735  1.0000  -5.3449   0.0000   0.0000   0.0000   0.2920
  17.000   1.2876   0.18747   0.18295  -0.1462  0.0735  1.0000  -3.6025   0.0000   0.0000   0.0000   0.3375
  17.500   1.2962   0.19474   0.19030  -0.1508  0.0676  1.0000  -3.6746   0.0000   0.0000   0.0000   0.3392
  18.000   1.2713   0.21515   0.21063  -0.1648  0.0607  1.0000  -3.2138   0.0000   0.0000   0.0000   0.3525
  18.500   1.2833   0.22188   0.21744  -0.1690  0.0557  1.0000  -3.2532   0.0000   0.0000   0.0000   0.3534
  19.000   1.2745   0.23888   0.23439  -0.1805  0.0521  1.0000  -2.8419   0.0000   0.0000   0.0000   0.3631
  19.500   1.2805   0.24982   0.24533  -0.1877  0.0510  1.0000  -2.6719   0.0000   0.0000   0.0000   0.3673
  20.000   1.2875   0.26053   0.25604  -0.1950  0.0518  1.0000  -2.4984   0.0000   0.0000   0.0000   0.3714


