xflr5 v6.61

 Calculated polar for: E63_8_00

 1 1 Reynolds number fixed          Mach number fixed         

 xtrf =   1.000 (top)        1.000 (bottom)
 Mach =   0.200     Re =     0.080 e 6     Ncrit =   9.000

  alpha     CL        CD       CDp       Cm    Top Xtr Bot Xtr   Cpmin    Chinge    XCp    
 ------- -------- --------- --------- -------- ------- ------- -------- --------- ---------
 -20.000  -0.5845   0.24870   0.24190   0.0056  1.0000  0.0369  -1.3708   0.0000   0.0000   0.0000   0.2460
 -19.500  -0.5738   0.24736   0.24060   0.0014  1.0000  0.0373  -1.4157   0.0000   0.0000   0.0000   0.2395
 -19.000  -0.5555   0.23735   0.23062   0.0000  1.0000  0.0380  -1.3583   0.0000   0.0000   0.0000   0.2373
 -18.500  -0.5391   0.23036   0.22365  -0.0016  1.0000  0.0394  -1.3091   0.0000   0.0000   0.0000   0.2346
 -18.000  -0.5240   0.22469   0.21800  -0.0038  1.0000  0.0410  -1.2975   0.0000   0.0000   0.0000   0.2307
 -17.500  -0.5093   0.21922   0.21251  -0.0061  1.0000  0.0427  -1.2993   0.0000   0.0000   0.0000   0.2263
 -17.000  -0.4952   0.21401   0.20734  -0.0086  1.0000  0.0444  -1.3159   0.0000   0.0000   0.0000   0.2213
 -16.500  -0.4836   0.21043   0.20380  -0.0117  1.0000  0.0456  -1.3698   0.0000   0.0000   0.0000   0.2149
 -16.000  -0.4777   0.20915   0.20257  -0.0152  1.0000  0.0460  -1.4525   0.0000   0.0000   0.0000   0.2078
 -15.500  -0.4562   0.19784   0.19130  -0.0152  1.0000  0.0470  -1.3616   0.0000   0.0000   0.0000   0.2062
 -15.000  -0.4408   0.19120   0.18470  -0.0160  1.0000  0.0488  -1.3057   0.0000   0.0000   0.0000   0.2034
 -14.500  -0.4275   0.18555   0.17909  -0.0174  1.0000  0.0510  -1.2814   0.0000   0.0000   0.0000   0.1993
 -14.000  -0.4155   0.18018   0.17376  -0.0190  1.0000  0.0533  -1.2745   0.0000   0.0000   0.0000   0.1946
 -13.500  -0.4071   0.17618   0.16978  -0.0213  1.0000  0.0552  -1.3096   0.0000   0.0000   0.0000   0.1884
 -13.000  -0.4071   0.17461   0.16830  -0.0242  1.0000  0.0558  -1.3909   0.0000   0.0000   0.0000   0.1818
 -12.500  -0.3840   0.16361   0.15735  -0.0229  1.0000  0.0575  -1.2637   0.0000   0.0000   0.0000   0.1813
 -12.000  -0.3716   0.15767   0.15145  -0.0232  1.0000  0.0606  -1.2105   0.0000   0.0000   0.0000   0.1789
 -11.500  -0.3639   0.15289   0.14674  -0.0243  1.0000  0.0644  -1.2447   0.0000   0.0000   0.0000   0.1747
 -11.000  -0.3705   0.15167   0.14564  -0.0271  1.0000  0.0657  -1.3759   0.0000   0.0000   0.0000   0.1692
 -10.500  -0.3466   0.14148   0.13550  -0.0249  1.0000  0.0690  -1.2708   0.0000   0.0000   0.0000   0.1702
 -10.000  -0.3394   0.13640   0.13051  -0.0251  1.0000  0.0730  -1.2856   0.0000   0.0000   0.0000   0.1686
  -9.750  -0.3403   0.13482   0.12899  -0.0257  1.0000  0.0747  -1.3283   0.0000   0.0000   0.0000   0.1671
  -9.500  -0.3472   0.13447   0.12871  -0.0269  1.0000  0.0755  -1.4009   0.0000   0.0000   0.0000   0.1659
  -9.250  -0.3572   0.13447   0.12880  -0.0279  1.0000  0.0758  -1.4801   0.0000   0.0000   0.0000   0.1656
  -9.000  -0.3316   0.12630   0.12062  -0.0251  1.0000  0.0778  -1.3553   0.0000   0.0000   0.0000   0.1675
  -8.750  -0.3267   0.12345   0.11777  -0.0244  1.0000  0.0799  -1.3399   0.0000   0.0000   0.0000   0.1688
  -8.500  -0.3247   0.12108   0.11544  -0.0239  1.0000  0.0822  -1.3454   0.0000   0.0000   0.0000   0.1699
  -8.250  -0.3262   0.11921   0.11365  -0.0238  1.0000  0.0845  -1.3726   0.0000   0.0000   0.0000   0.1708
  -8.000  -0.3351   0.11859   0.11312  -0.0242  1.0000  0.0859  -1.4369   0.0000   0.0000   0.0000   0.1722
  -7.750  -0.3493   0.11859   0.11323  -0.0242  1.0000  0.0863  -1.5136   0.0000   0.0000   0.0000   0.1756
  -7.500  -0.3308   0.11257   0.10722  -0.0223  1.0000  0.0881  -1.4346   0.0000   0.0000   0.0000   0.1774
  -7.250  -0.3263   0.10977   0.10446  -0.0208  1.0000  0.0904  -1.4087   0.0000   0.0000   0.0000   0.1810
  -7.000  -0.3280   0.10776   0.10252  -0.0197  1.0000  0.0928  -1.4143   0.0000   0.0000   0.0000   0.1851
  -6.750  -0.3355   0.10643   0.10128  -0.0186  1.0000  0.0951  -1.4445   0.0000   0.0000   0.0000   0.1901
  -6.500  -0.3522   0.10615   0.10111  -0.0171  1.0000  0.0964  -1.5036   0.0000   0.0000   0.0000   0.1975
  -6.250  -0.3678   0.10587   0.10096  -0.0182  1.0000  0.0970  -1.5882   0.0000   0.0000   0.0000   0.1968
  -6.000  -0.3578   0.10127   0.09639  -0.0146  1.0000  0.0986  -1.5202   0.0000   0.0000   0.0000   0.2056
  -5.750  -0.3542   0.09857   0.09374  -0.0127  1.0000  0.1011  -1.4869   0.0000   0.0000   0.0000   0.2108
  -5.500  -0.3558   0.09650   0.09174  -0.0122  1.0000  0.1041  -1.4932   0.0000   0.0000   0.0000   0.2123
  -5.250  -0.3598   0.09503   0.09035  -0.0173  1.0000  0.1073  -1.5762   0.0000   0.0000   0.0000   0.1989
  -5.000  -0.3568   0.09176   0.08715  -0.0173  1.0000  0.1087  -1.5757   0.0000   0.0000   0.0000   0.1986
  -4.750  -0.3525   0.08895   0.08438  -0.0141  1.0000  0.1113  -1.5228   0.0000   0.0000   0.0000   0.2072
  -4.500  -0.3469   0.08638   0.08185  -0.0154  1.0000  0.1155  -1.5199   0.0000   0.0000   0.0000   0.2029
  -4.250  -0.3338   0.08291   0.07842  -0.0230  1.0000  0.1196  -1.5725   0.0000   0.0000   0.0000   0.1784
  -4.000  -0.3300   0.08048   0.07604  -0.0192  1.0000  0.1238  -1.5095   0.0000   0.0000   0.0000   0.1892
  -3.750  -0.3121   0.07693   0.07250  -0.0256  1.0000  0.1313  -1.5230   0.0000   0.0000   0.0000   0.1653
  -3.500  -0.2889   0.07345   0.06899  -0.0322  1.0000  0.1413  -1.5173   0.0000   0.0000   0.0000   0.1358
  -3.250  -0.2815   0.07109   0.06664  -0.0297  1.0000  0.1476  -1.4568   0.0000   0.0000   0.0000   0.1418
  -3.000  -0.2340   0.06639   0.06180  -0.0444  1.0000  0.1625  -1.4672   0.0000   0.0000   0.0000   0.0572
  -2.750  -0.2291   0.06392   0.05941  -0.0404  1.0000  0.1655  -1.4025   0.0000   0.0000   0.0000   0.0706
  -2.500  -0.1985   0.06047   0.05591  -0.0459  1.0000  0.1767  -1.3595   0.0000   0.0000   0.0000   0.0153
  -2.250   0.0060   0.03844   0.03199  -0.0978  1.0000  0.0858  -1.8782   0.0000   0.0000   0.0000  16.5973
  -2.000   0.0126   0.02879   0.02266  -0.0932  1.0000  0.0849  -1.7784   0.0000   0.0000   0.0000   7.7064
  -1.750   0.1238   0.03036   0.02232  -0.1127  1.0000  0.0845  -1.9055   0.0000   0.0000   0.0000   1.1659
  -1.500   0.1223   0.02028   0.01269  -0.1062  1.0000  0.0897  -1.7713   0.0000   0.0000   0.0000   1.1223
  -1.250   0.1991   0.02783   0.01912  -0.1172  1.0000  0.1122  -1.7612   0.0000   0.0000   0.0000   0.8410
  -1.000   0.2263   0.02773   0.01897  -0.1178  1.0000  0.1345  -1.6232   0.0000   0.0000   0.0000   0.7721
  -0.750   0.2517   0.02793   0.01914  -0.1183  1.0000  0.1635  -1.4716   0.0000   0.0000   0.0000   0.7209
  -0.500   0.2810   0.02788   0.01914  -0.1192  0.9994  0.1936  -1.3461   0.0000   0.0000   0.0000   0.6748
  -0.250   0.3349   0.02795   0.01937  -0.1244  0.9908  0.2601  -1.1606   0.0000   0.0000   0.0000   0.6215
   0.000   0.3864   0.02797   0.01966  -0.1291  0.9816  0.3439  -0.9687   0.0000   0.0000   0.0000   0.5838
   0.250   0.4358   0.02784   0.01988  -0.1332  0.9718  0.4554  -0.7814   0.0000   0.0000   0.0000   0.5549
   0.500   0.4782   0.02708   0.02007  -0.1353  0.9623  0.6957  -0.6159   0.0000   0.0000   0.0000   0.5319
   0.750   0.5112   0.02663   0.01967  -0.1360  0.9463  1.0000  -0.6482   0.0000   0.0000   0.0000   0.5145
   1.000   0.5593   0.02686   0.01959  -0.1398  0.9334  1.0000  -0.6932   0.0000   0.0000   0.0000   0.4981
   1.250   0.6084   0.02694   0.01947  -0.1435  0.9212  1.0000  -0.7415   0.0000   0.0000   0.0000   0.4838
   1.500   0.6499   0.02692   0.01932  -0.1458  0.9058  1.0000  -0.7859   0.0000   0.0000   0.0000   0.4720
   1.750   0.6962   0.02670   0.01900  -0.1486  0.8919  1.0000  -0.8384   0.0000   0.0000   0.0000   0.4608
   2.000   0.7456   0.02625   0.01847  -0.1516  0.8791  1.0000  -0.8989   0.0000   0.0000   0.0000   0.4504
   2.250   0.7861   0.02585   0.01805  -0.1530  0.8628  1.0000  -0.9558   0.0000   0.0000   0.0000   0.4415
   2.500   0.8334   0.02513   0.01733  -0.1552  0.8491  1.0000  -1.0233   0.0000   0.0000   0.0000   0.4328
   2.750   0.8832   0.02410   0.01632  -0.1575  0.8365  1.0000  -1.0949   0.0000   0.0000   0.0000   0.4246
   3.000   0.9261   0.02320   0.01545  -0.1585  0.8201  1.0000  -1.1643   0.0000   0.0000   0.0000   0.4172
   3.250   0.9789   0.02191   0.01423  -0.1609  0.8050  1.0000  -1.2518   0.0000   0.0000   0.0000   0.4102
   3.500   1.0290   0.02083   0.01319  -0.1630  0.7847  1.0000  -1.3390   0.0000   0.0000   0.0000   0.4039
   3.750   1.0828   0.01978   0.01216  -0.1658  0.7603  1.0000  -1.4387   0.0000   0.0000   0.0000   0.3983
   4.000   1.1275   0.01923   0.01160  -0.1671  0.7278  1.0000  -1.5279   0.0000   0.0000   0.0000   0.3931
   4.250   1.1651   0.01908   0.01135  -0.1674  0.6892  1.0000  -1.6213   0.0000   0.0000   0.0000   0.3883
   4.500   1.1988   0.01921   0.01130  -0.1671  0.6479  1.0000  -1.7269   0.0000   0.0000   0.0000   0.3837
   4.750   1.2279   0.01960   0.01147  -0.1662  0.6063  1.0000  -1.8256   0.0000   0.0000   0.0000   0.3792
   5.000   1.2526   0.02018   0.01192  -0.1646  0.5656  1.0000  -1.9169   0.0000   0.0000   0.0000   0.3750
   5.250   1.2757   0.02088   0.01240  -0.1629  0.5272  1.0000  -2.0063   0.0000   0.0000   0.0000   0.3710
   5.500   1.2977   0.02166   0.01299  -0.1611  0.4912  1.0000  -2.0940   0.0000   0.0000   0.0000   0.3671
   5.750   1.3192   0.02251   0.01366  -0.1593  0.4577  1.0000  -2.1811   0.0000   0.0000   0.0000   0.3634
   6.000   1.3404   0.02341   0.01440  -0.1575  0.4268  1.0000  -2.2943   0.0000   0.0000   0.0000   0.3598
   6.250   1.3620   0.02437   0.01518  -0.1559  0.3984  1.0000  -2.4397   0.0000   0.0000   0.0000   0.3564
   6.500   1.3821   0.02536   0.01610  -0.1541  0.3714  1.0000  -2.5815   0.0000   0.0000   0.0000   0.3531
   6.750   1.4031   0.02640   0.01703  -0.1524  0.3470  1.0000  -2.7286   0.0000   0.0000   0.0000   0.3499
   7.000   1.4242   0.02750   0.01816  -0.1508  0.3244  1.0000  -2.8778   0.0000   0.0000   0.0000   0.3468
   7.250   1.4444   0.02861   0.01924  -0.1491  0.3031  1.0000  -3.0259   0.0000   0.0000   0.0000   0.3438
   7.500   1.4629   0.02970   0.02032  -0.1472  0.2827  1.0000  -3.1875   0.0000   0.0000   0.0000   0.3408
   7.750   1.4794   0.03072   0.02133  -0.1449  0.2631  1.0000  -3.3535   0.0000   0.0000   0.0000   0.3377
   8.000   1.4936   0.03166   0.02222  -0.1423  0.2440  1.0000  -3.5171   0.0000   0.0000   0.0000   0.3347
   8.250   1.5059   0.03257   0.02313  -0.1395  0.2260  1.0000  -3.6761   0.0000   0.0000   0.0000   0.3317
   8.500   1.5176   0.03360   0.02425  -0.1366  0.2094  1.0000  -3.8306   0.0000   0.0000   0.0000   0.3287
   8.750   1.5316   0.03476   0.02546  -0.1342  0.1951  1.0000  -3.9933   0.0000   0.0000   0.0000   0.3259
   9.000   1.5472   0.03606   0.02677  -0.1320  0.1822  1.0000  -4.1624   0.0000   0.0000   0.0000   0.3232
   9.250   1.5624   0.03755   0.02836  -0.1298  0.1699  1.0000  -4.3230   0.0000   0.0000   0.0000   0.3206
   9.500   1.5746   0.03913   0.03019  -0.1272  0.1577  1.0000  -4.4686   0.0000   0.0000   0.0000   0.3179
   9.750   1.5821   0.04065   0.03186  -0.1239  0.1458  1.0000  -4.5969   0.0000   0.0000   0.0000   0.3150
  10.000   1.5865   0.04222   0.03356  -0.1202  0.1345  1.0000  -4.7126   0.0000   0.0000   0.0000   0.3121
  10.250   1.5932   0.04417   0.03565  -0.1170  0.1240  1.0000  -4.8232   0.0000   0.0000   0.0000   0.3094
  10.500   1.5979   0.04626   0.03788  -0.1137  0.1141  1.0000  -4.9201   0.0000   0.0000   0.0000   0.3067
  10.750   1.5991   0.04834   0.04005  -0.1102  0.1050  1.0000  -5.0062   0.0000   0.0000   0.0000   0.3040
  11.000   1.6046   0.05078   0.04252  -0.1074  0.0965  1.0000  -5.0943   0.0000   0.0000   0.0000   0.3016
  11.250   1.6010   0.05375   0.04588  -0.1036  0.0899  1.0000  -5.1191   0.0000   0.0000   0.0000   0.2990
  11.500   1.6022   0.05704   0.04936  -0.1008  0.0844  1.0000  -5.1612   0.0000   0.0000   0.0000   0.2968
  11.750   1.5972   0.06054   0.05320  -0.0977  0.0802  1.0000  -5.1738   0.0000   0.0000   0.0000   0.2946
  12.000   1.6053   0.06393   0.05661  -0.0960  0.0763  1.0000  -5.2532   0.0000   0.0000   0.0000   0.2929
  12.250   1.5872   0.06833   0.06151  -0.0928  0.0751  1.0000  -5.2059   0.0000   0.0000   0.0000   0.2911
  12.500   1.5680   0.07314   0.06673  -0.0904  0.0741  1.0000  -5.1563   0.0000   0.0000   0.0000   0.2899
  12.750   1.5468   0.07838   0.07234  -0.0888  0.0734  1.0000  -5.0993   0.0000   0.0000   0.0000   0.2893
  13.000   1.5230   0.08417   0.07848  -0.0884  0.0731  1.0000  -5.0297   0.0000   0.0000   0.0000   0.2894
  13.250   1.4966   0.09070   0.08532  -0.0892  0.0730  1.0000  -4.9433   0.0000   0.0000   0.0000   0.2906
  13.500   1.4674   0.09812   0.09300  -0.0915  0.0733  1.0000  -4.8361   0.0000   0.0000   0.0000   0.2929
  13.750   1.4361   0.10666   0.10180  -0.0956  0.0738  1.0000  -4.7047   0.0000   0.0000   0.0000   0.2967
  14.000   1.4036   0.11644   0.11179  -0.1015  0.0746  1.0000  -4.5465   0.0000   0.0000   0.0000   0.3021
  14.250   1.3716   0.12748   0.12299  -0.1089  0.0755  1.0000  -4.3595   0.0000   0.0000   0.0000   0.3089
  14.500   1.3420   0.13943   0.13502  -0.1173  0.0763  1.0000  -4.1457   0.0000   0.0000   0.0000   0.3167
  15.000   1.2424   0.18551   0.18085  -0.1506  0.0859  1.0000  -2.9433   0.0000   0.0000   0.0000   0.3515
  16.500   1.2258   0.23485   0.23009  -0.1847  0.1331  1.0000  -1.9855   0.0000   0.0000   0.0000   0.3800
  16.750   1.2366   0.23888   0.23415  -0.1859  0.1302  1.0000  -2.0079   0.0000   0.0000   0.0000   0.3792
  17.000   1.2544   0.24488   0.24019  -0.1854  0.1281  1.0000  -2.0867   0.0000   0.0000   0.0000   0.3762
  17.250   1.2459   0.24677   0.24203  -0.1919  0.1250  1.0000  -1.9763   0.0000   0.0000   0.0000   0.3821
  17.500   1.2576   0.25027   0.24557  -0.1927  0.1194  1.0000  -2.0288   0.0000   0.0000   0.0000   0.3807
  17.750   1.2673   0.25500   0.25030  -0.1942  0.1171  1.0000  -2.0520   0.0000   0.0000   0.0000   0.3802
  18.000   1.2665   0.25752   0.25281  -0.1991  0.1131  1.0000  -1.9877   0.0000   0.0000   0.0000   0.3838
  18.250   1.2757   0.26113   0.25650  -0.2009  0.1101  1.0000  -2.0095   0.0000   0.0000   0.0000   0.3835
  18.500   1.2925   0.26655   0.26199  -0.2001  0.1079  1.0000  -2.0952   0.0000   0.0000   0.0000   0.3804


