xflr5 v6.61

 Calculated polar for: E63_8_00

 1 1 Reynolds number fixed          Mach number fixed         

 xtrf =   1.000 (top)        1.000 (bottom)
 Mach =   0.200     Re =     0.100 e 6     Ncrit =   9.000

  alpha     CL        CD       CDp       Cm    Top Xtr Bot Xtr   Cpmin    Chinge    XCp    
 ------- -------- --------- --------- -------- ------- ------- -------- --------- ---------
 -15.500  -0.4558   0.19633   0.19048  -0.0144  1.0000  0.0384  -1.3745   0.0000   0.0000   0.0000   0.2078
 -15.000  -0.4414   0.19021   0.18438  -0.0155  1.0000  0.0399  -1.3269   0.0000   0.0000   0.0000   0.2046
 -14.500  -0.4282   0.18457   0.17878  -0.0169  1.0000  0.0415  -1.3039   0.0000   0.0000   0.0000   0.2006
 -14.000  -0.4160   0.17907   0.17332  -0.0184  1.0000  0.0433  -1.2946   0.0000   0.0000   0.0000   0.1961
 -13.500  -0.4058   0.17426   0.16853  -0.0203  1.0000  0.0451  -1.3163   0.0000   0.0000   0.0000   0.1904
 -13.000  -0.4028   0.17179   0.16613  -0.0232  1.0000  0.0459  -1.3956   0.0000   0.0000   0.0000   0.1834
 -12.500  -0.3941   0.16569   0.16011  -0.0244  1.0000  0.0464  -1.4022   0.0000   0.0000   0.0000   0.1793
 -12.000  -0.3738   0.15657   0.15102  -0.0230  1.0000  0.0482  -1.2620   0.0000   0.0000   0.0000   0.1796
 -11.500  -0.3630   0.15094   0.14544  -0.0233  1.0000  0.0504  -1.2348   0.0000   0.0000   0.0000   0.1773
 -11.000  -0.3545   0.14565   0.14021  -0.0239  1.0000  0.0531  -1.2547   0.0000   0.0000   0.0000   0.1742
 -10.500  -0.3538   0.14222   0.13687  -0.0258  1.0000  0.0553  -1.3517   0.0000   0.0000   0.0000   0.1694
 -10.000  -0.3660   0.14106   0.13585  -0.0283  1.0000  0.0558  -1.5075   0.0000   0.0000   0.0000   0.1658
  -9.750  -0.3389   0.13232   0.12709  -0.0249  1.0000  0.0580  -1.3326   0.0000   0.0000   0.0000   0.1693
  -9.500  -0.3341   0.12960   0.12441  -0.0244  1.0000  0.0599  -1.3171   0.0000   0.0000   0.0000   0.1698
  -9.250  -0.3313   0.12713   0.12198  -0.0242  1.0000  0.0618  -1.3231   0.0000   0.0000   0.0000   0.1700
  -9.000  -0.3305   0.12495   0.11985  -0.0243  1.0000  0.0638  -1.3487   0.0000   0.0000   0.0000   0.1697
  -8.750  -0.3350   0.12373   0.11869  -0.0250  1.0000  0.0651  -1.4119   0.0000   0.0000   0.0000   0.1691
  -8.500  -0.3446   0.12326   0.11832  -0.0257  1.0000  0.0656  -1.4948   0.0000   0.0000   0.0000   0.1695
  -8.250  -0.3560   0.12280   0.11795  -0.0261  1.0000  0.0658  -1.5775   0.0000   0.0000   0.0000   0.1712
  -8.000  -0.3299   0.11536   0.11045  -0.0232  1.0000  0.0675  -1.4355   0.0000   0.0000   0.0000   0.1739
  -7.750  -0.3262   0.11272   0.10785  -0.0220  1.0000  0.0692  -1.4140   0.0000   0.0000   0.0000   0.1768
  -7.500  -0.3260   0.11052   0.10570  -0.0211  1.0000  0.0710  -1.4167   0.0000   0.0000   0.0000   0.1798
  -7.250  -0.3287   0.10863   0.10389  -0.0203  1.0000  0.0729  -1.4369   0.0000   0.0000   0.0000   0.1830
  -7.000  -0.3377   0.10754   0.10287  -0.0197  1.0000  0.0745  -1.4877   0.0000   0.0000   0.0000   0.1871
  -6.750  -0.3551   0.10740   0.10284  -0.0184  1.0000  0.0752  -1.5622   0.0000   0.0000   0.0000   0.1939
  -6.500  -0.3717   0.10709   0.10264  -0.0186  1.0000  0.0756  -1.6489   0.0000   0.0000   0.0000   0.1963
  -6.000  -0.3585   0.09954   0.09517  -0.0132  1.0000  0.0782  -1.5414   0.0000   0.0000   0.0000   0.2097
  -5.750  -0.3586   0.09733   0.09301  -0.0118  1.0000  0.0801  -1.5278   0.0000   0.0000   0.0000   0.2136
  -5.500  -0.3605   0.09524   0.09098  -0.0114  1.0000  0.0823  -1.5360   0.0000   0.0000   0.0000   0.2151
  -5.250  -0.3625   0.09320   0.08901  -0.0136  1.0000  0.0850  -1.5836   0.0000   0.0000   0.0000   0.2094
  -5.000  -0.3559   0.09025   0.08612  -0.0243  1.0000  0.0867  -1.7227   0.0000   0.0000   0.0000   0.1789
  -4.750  -0.3556   0.08724   0.08316  -0.0177  1.0000  0.0878  -1.6325   0.0000   0.0000   0.0000   0.1974
  -4.500  -0.3510   0.08471   0.08067  -0.0158  1.0000  0.0899  -1.5853   0.0000   0.0000   0.0000   0.2022
  -4.250  -0.3423   0.08195   0.07793  -0.0178  1.0000  0.0935  -1.5776   0.0000   0.0000   0.0000   0.1954
  -4.000  -0.3177   0.07737   0.07334  -0.0293  1.0000  0.0980  -1.6543   0.0000   0.0000   0.0000   0.1551
  -3.750  -0.3133   0.07499   0.07101  -0.0261  1.0000  0.1000  -1.5874   0.0000   0.0000   0.0000   0.1640
  -3.500  -0.2709   0.06979   0.06570  -0.0409  1.0000  0.1084  -1.6398   0.0000   0.0000   0.0000   0.0959
  -3.250  -0.2681   0.06769   0.06368  -0.0365  1.0000  0.1106  -1.5586   0.0000   0.0000   0.0000   0.1108
  -3.000  -0.2371   0.06388   0.05978  -0.0436  1.0000  0.1208  -1.5296   0.0000   0.0000   0.0000   0.0631
  -2.750  -0.1808   0.05941   0.05509  -0.0581  1.0000  0.1402  -1.5101   0.0000   0.0000   0.0000  -0.0753
  -2.500  -0.1713   0.05679   0.05256  -0.0558  1.0000  0.1425  -1.4354   0.0000   0.0000   0.0000  -0.0795
  -2.000   0.1203   0.01909   0.01213  -0.1131  0.9868  0.0689  -1.8806   0.0000   0.0000   0.0000   1.1956
  -1.750   0.1340   0.02797   0.02025  -0.1146  1.0000  0.0695  -1.9790   0.0000   0.0000   0.0000   1.1102
  -1.500   0.1815   0.02652   0.01837  -0.1182  0.9981  0.0793  -1.9020   0.0000   0.0000   0.0000   0.9050
  -1.250   0.2339   0.02575   0.01739  -0.1227  0.9929  0.1007  -1.7487   0.0000   0.0000   0.0000   0.7770
  -1.000   0.2842   0.02552   0.01707  -0.1270  0.9871  0.1297  -1.5379   0.0000   0.0000   0.0000   0.6982
  -0.750   0.3322   0.02550   0.01722  -0.1312  0.9795  0.1768  -1.3293   0.0000   0.0000   0.0000   0.6456
  -0.500   0.3782   0.02546   0.01739  -0.1350  0.9708  0.2438  -1.1393   0.0000   0.0000   0.0000   0.6072
  -0.250   0.4239   0.02524   0.01739  -0.1386  0.9619  0.3183  -0.9534   0.0000   0.0000   0.0000   0.5767
   0.000   0.4697   0.02489   0.01737  -0.1420  0.9528  0.4092  -0.7699   0.0000   0.0000   0.0000   0.5517
   0.250   0.5137   0.02433   0.01734  -0.1447  0.9436  0.5606  -0.6324   0.0000   0.0000   0.0000   0.5309
   0.500   0.5412   0.02316   0.01694  -0.1433  0.9326  1.0000  -0.6629   0.0000   0.0000   0.0000   0.5136
   0.750   0.5871   0.02311   0.01660  -0.1465  0.9219  1.0000  -0.7068   0.0000   0.0000   0.0000   0.4979
   1.000   0.6321   0.02296   0.01626  -0.1492  0.9110  1.0000  -0.7527   0.0000   0.0000   0.0000   0.4843
   1.250   0.6772   0.02266   0.01583  -0.1519  0.9001  1.0000  -0.8005   0.0000   0.0000   0.0000   0.4721
   1.500   0.7227   0.02222   0.01530  -0.1543  0.8890  1.0000  -0.8523   0.0000   0.0000   0.0000   0.4612
   1.750   0.7605   0.02185   0.01487  -0.1554  0.8745  1.0000  -0.9022   0.0000   0.0000   0.0000   0.4516
   2.000   0.8039   0.02125   0.01423  -0.1571  0.8625  1.0000  -0.9619   0.0000   0.0000   0.0000   0.4426
   2.250   0.8481   0.02048   0.01346  -0.1589  0.8509  1.0000  -1.0266   0.0000   0.0000   0.0000   0.4341
   2.500   0.8935   0.01959   0.01257  -0.1606  0.8390  1.0000  -1.0938   0.0000   0.0000   0.0000   0.4263
   2.750   0.9419   0.01860   0.01159  -0.1629  0.8262  1.0000  -1.1678   0.0000   0.0000   0.0000   0.4192
   3.000   0.9862   0.01782   0.01085  -0.1644  0.8081  1.0000  -1.2443   0.0000   0.0000   0.0000   0.4127
   3.250   1.0351   0.01706   0.01010  -0.1669  0.7867  1.0000  -1.3287   0.0000   0.0000   0.0000   0.4069
   3.500   1.0842   0.01647   0.00945  -0.1694  0.7599  1.0000  -1.4213   0.0000   0.0000   0.0000   0.4017
   3.750   1.1232   0.01628   0.00922  -0.1703  0.7250  1.0000  -1.5023   0.0000   0.0000   0.0000   0.3967
   4.000   1.1587   0.01633   0.00911  -0.1706  0.6856  1.0000  -1.5801   0.0000   0.0000   0.0000   0.3920
   4.250   1.1881   0.01662   0.00921  -0.1698  0.6438  1.0000  -1.6763   0.0000   0.0000   0.0000   0.3874
   4.500   1.2142   0.01707   0.00944  -0.1686  0.6025  1.0000  -1.7692   0.0000   0.0000   0.0000   0.3830
   4.750   1.2380   0.01764   0.00977  -0.1670  0.5628  1.0000  -1.8593   0.0000   0.0000   0.0000   0.3787
   5.000   1.2594   0.01828   0.01028  -0.1651  0.5242  1.0000  -1.9454   0.0000   0.0000   0.0000   0.3746
   5.250   1.2804   0.01900   0.01079  -0.1632  0.4887  1.0000  -2.0319   0.0000   0.0000   0.0000   0.3707
   5.500   1.3008   0.01976   0.01136  -0.1613  0.4554  1.0000  -2.1177   0.0000   0.0000   0.0000   0.3669
   5.750   1.3209   0.02055   0.01200  -0.1594  0.4242  1.0000  -2.2032   0.0000   0.0000   0.0000   0.3632
   6.000   1.3408   0.02139   0.01269  -0.1575  0.3954  1.0000  -2.3205   0.0000   0.0000   0.0000   0.3597
   6.250   1.3608   0.02225   0.01343  -0.1557  0.3687  1.0000  -2.4622   0.0000   0.0000   0.0000   0.3563
   6.500   1.3809   0.02316   0.01418  -0.1539  0.3444  1.0000  -2.6070   0.0000   0.0000   0.0000   0.3530
   6.750   1.3988   0.02402   0.01498  -0.1518  0.3197  1.0000  -2.7477   0.0000   0.0000   0.0000   0.3497
   7.000   1.4156   0.02487   0.01587  -0.1495  0.2963  1.0000  -2.8883   0.0000   0.0000   0.0000   0.3464
   7.250   1.4319   0.02571   0.01667  -0.1472  0.2747  1.0000  -3.0311   0.0000   0.0000   0.0000   0.3433
   7.500   1.4481   0.02660   0.01749  -0.1449  0.2552  1.0000  -3.1970   0.0000   0.0000   0.0000   0.3402
   7.750   1.4635   0.02748   0.01835  -0.1426  0.2368  1.0000  -3.3625   0.0000   0.0000   0.0000   0.3372
   8.000   1.4787   0.02840   0.01932  -0.1402  0.2198  1.0000  -3.5281   0.0000   0.0000   0.0000   0.3342
   8.250   1.4934   0.02936   0.02027  -0.1378  0.2047  1.0000  -3.6952   0.0000   0.0000   0.0000   0.3313
   8.500   1.5077   0.03038   0.02131  -0.1353  0.1911  1.0000  -3.8610   0.0000   0.0000   0.0000   0.3284
   8.750   1.5222   0.03146   0.02250  -0.1329  0.1786  1.0000  -4.0259   0.0000   0.0000   0.0000   0.3255
   9.000   1.5364   0.03264   0.02377  -0.1305  0.1670  1.0000  -4.1896   0.0000   0.0000   0.0000   0.3228
   9.250   1.5493   0.03390   0.02512  -0.1279  0.1558  1.0000  -4.3480   0.0000   0.0000   0.0000   0.3200
   9.500   1.5593   0.03520   0.02658  -0.1249  0.1444  1.0000  -4.4955   0.0000   0.0000   0.0000   0.3172
   9.750   1.5665   0.03654   0.02803  -0.1217  0.1330  1.0000  -4.6317   0.0000   0.0000   0.0000   0.3143
  10.000   1.5733   0.03808   0.02968  -0.1185  0.1221  1.0000  -4.7605   0.0000   0.0000   0.0000   0.3116
  10.250   1.5794   0.03986   0.03157  -0.1154  0.1117  1.0000  -4.8783   0.0000   0.0000   0.0000   0.3089
  10.500   1.5824   0.04175   0.03357  -0.1120  0.1016  1.0000  -4.9814   0.0000   0.0000   0.0000   0.3062
  10.750   1.5851   0.04392   0.03587  -0.1089  0.0924  1.0000  -5.0715   0.0000   0.0000   0.0000   0.3037
  11.000   1.5879   0.04634   0.03837  -0.1059  0.0844  1.0000  -5.1522   0.0000   0.0000   0.0000   0.3013
  11.250   1.5910   0.04883   0.04089  -0.1032  0.0774  1.0000  -5.2314   0.0000   0.0000   0.0000   0.2990
  11.500   1.5928   0.05196   0.04436  -0.1004  0.0715  1.0000  -5.2687   0.0000   0.0000   0.0000   0.2968
  11.750   1.6004   0.05474   0.04708  -0.0985  0.0670  1.0000  -5.3619   0.0000   0.0000   0.0000   0.2948
  12.000   1.5991   0.05839   0.05116  -0.0959  0.0641  1.0000  -5.3802   0.0000   0.0000   0.0000   0.2929
  12.250   1.5946   0.06196   0.05506  -0.0936  0.0616  1.0000  -5.4040   0.0000   0.0000   0.0000   0.2911
  12.500   1.5907   0.06528   0.05859  -0.0917  0.0593  1.0000  -5.4529   0.0000   0.0000   0.0000   0.2896
  12.750   1.5958   0.06860   0.06183  -0.0905  0.0567  1.0000  -5.5527   0.0000   0.0000   0.0000   0.2882
  13.000   1.5791   0.07318   0.06684  -0.0889  0.0559  1.0000  -5.5324   0.0000   0.0000   0.0000   0.2874
  13.250   1.5613   0.07827   0.07232  -0.0882  0.0552  1.0000  -5.5048   0.0000   0.0000   0.0000   0.2871
  13.500   1.5421   0.08391   0.07830  -0.0884  0.0547  1.0000  -5.4639   0.0000   0.0000   0.0000   0.2874
  13.750   1.5210   0.09014   0.08486  -0.0895  0.0543  1.0000  -5.4057   0.0000   0.0000   0.0000   0.2885
  14.000   1.4980   0.09708   0.09210  -0.0918  0.0542  1.0000  -5.3267   0.0000   0.0000   0.0000   0.2905
  14.250   1.4732   0.10488   0.10018  -0.0954  0.0543  1.0000  -5.2234   0.0000   0.0000   0.0000   0.2935
  14.500   1.4467   0.11369   0.10924  -0.1005  0.0547  1.0000  -5.0914   0.0000   0.0000   0.0000   0.2978
  14.750   1.4192   0.12355   0.11933  -0.1069  0.0552  1.0000  -4.9283   0.0000   0.0000   0.0000   0.3033
  15.000   1.3917   0.13437   0.13031  -0.1145  0.0559  1.0000  -4.7348   0.0000   0.0000   0.0000   0.3100
  15.250   1.3657   0.14576   0.14178  -0.1227  0.0566  1.0000  -4.5181   0.0000   0.0000   0.0000   0.3173


