xflr5 v6.61

 Calculated polar for: E63_13_00

 1 1 Reynolds number fixed          Mach number fixed         

 xtrf =   1.000 (top)        1.000 (bottom)
 Mach =   0.200     Re =     0.090 e 6     Ncrit =   7.000

  alpha     CL        CD       CDp       Cm    Top Xtr Bot Xtr   Cpmin    Chinge    XCp    
 ------- -------- --------- --------- -------- ------- ------- -------- --------- ---------
 -25.000  -0.6628   0.29621   0.28935   0.0236  1.0000  0.0377  -1.5661   0.0000   0.0000   0.0000   0.2516
 -24.500  -0.6457   0.28918   0.28232   0.0213  1.0000  0.0385  -1.4935   0.0000   0.0000   0.0000   0.2497
 -24.000  -0.6299   0.28393   0.27705   0.0184  1.0000  0.0394  -1.4481   0.0000   0.0000   0.0000   0.2467
 -23.500  -0.6143   0.27889   0.27203   0.0154  1.0000  0.0406  -1.4146   0.0000   0.0000   0.0000   0.2432
 -23.000  -0.5988   0.27384   0.26699   0.0123  1.0000  0.0421  -1.3878   0.0000   0.0000   0.0000   0.2393
 -22.500  -0.5836   0.26887   0.26203   0.0091  1.0000  0.0442  -1.3952   0.0000   0.0000   0.0000   0.2349
 -22.000  -0.5703   0.26510   0.25828   0.0050  1.0000  0.0456  -1.4537   0.0000   0.0000   0.0000   0.2288
 -21.500  -0.5596   0.26270   0.25591   0.0009  1.0000  0.0459  -1.5243   0.0000   0.0000   0.0000   0.2223
 -21.000  -0.5476   0.25846   0.25173  -0.0026  1.0000  0.0462  -1.5645   0.0000   0.0000   0.0000   0.2167
 -20.500  -0.5249   0.24799   0.24124  -0.0031  1.0000  0.0471  -1.4606   0.0000   0.0000   0.0000   0.2157
 -20.000  -0.5079   0.24225   0.23552  -0.0049  1.0000  0.0484  -1.4148   0.0000   0.0000   0.0000   0.2123
 -19.500  -0.4921   0.23696   0.23027  -0.0071  1.0000  0.0499  -1.3902   0.0000   0.0000   0.0000   0.2080
 -19.000  -0.4769   0.23169   0.22503  -0.0094  1.0000  0.0518  -1.3779   0.0000   0.0000   0.0000   0.2032
 -18.500  -0.4628   0.22651   0.21988  -0.0119  1.0000  0.0540  -1.3827   0.0000   0.0000   0.0000   0.1976
 -18.000  -0.4521   0.22237   0.21578  -0.0152  1.0000  0.0554  -1.4316   0.0000   0.0000   0.0000   0.1903
 -17.500  -0.4464   0.21962   0.21309  -0.0188  1.0000  0.0558  -1.5051   0.0000   0.0000   0.0000   0.1825
 -17.000  -0.4250   0.21045   0.20395  -0.0190  1.0000  0.0566  -1.4229   0.0000   0.0000   0.0000   0.1798
 -16.500  -0.4073   0.20434   0.19788  -0.0196  1.0000  0.0586  -1.3486   0.0000   0.0000   0.0000   0.1767
 -16.000  -0.3931   0.19914   0.19272  -0.0209  1.0000  0.0623  -1.3140   0.0000   0.0000   0.0000   0.1719
 -15.500  -0.3878   0.19537   0.18902  -0.0241  1.0000  0.0654  -1.4010   0.0000   0.0000   0.0000   0.1637
 -15.000  -0.3827   0.19074   0.18447  -0.0264  1.0000  0.0660  -1.4722   0.0000   0.0000   0.0000   0.1574
 -14.500  -0.3595   0.18259   0.17636  -0.0254  1.0000  0.0676  -1.3755   0.0000   0.0000   0.0000   0.1555
 -14.000  -0.3460   0.17712   0.17094  -0.0259  1.0000  0.0699  -1.3505   0.0000   0.0000   0.0000   0.1518
 -13.500  -0.3359   0.17182   0.16568  -0.0268  1.0000  0.0729  -1.3577   0.0000   0.0000   0.0000   0.1472
 -13.000  -0.3349   0.16750   0.16143  -0.0290  1.0000  0.0752  -1.4363   0.0000   0.0000   0.0000   0.1413
 -12.500  -0.3420   0.16402   0.15804  -0.0315  1.0000  0.0757  -1.5476   0.0000   0.0000   0.0000   0.1373
 -12.000  -0.3160   0.15520   0.14928  -0.0294  1.0000  0.0772  -1.4309   0.0000   0.0000   0.0000   0.1358
 -11.500  -0.3043   0.14969   0.14384  -0.0287  1.0000  0.0795  -1.3913   0.0000   0.0000   0.0000   0.1350
 -11.000  -0.2983   0.14444   0.13867  -0.0286  1.0000  0.0824  -1.3940   0.0000   0.0000   0.0000   0.1341
 -10.500  -0.3037   0.13965   0.13398  -0.0297  1.0000  0.0857  -1.4732   0.0000   0.0000   0.0000   0.1336
  -9.000  -0.3052   0.11989   0.11448  -0.0281  1.0000  0.0720  -1.6774   0.0000   0.0000   0.0000   0.1417
  -8.500  -0.3187   0.11289   0.10758  -0.0278  1.0000  0.0690  -1.8641   0.0000   0.0000   0.0000   0.1479
  -8.000  -0.3309   0.10731   0.10212  -0.0264  1.0000  0.0703  -1.9796   0.0000   0.0000   0.0000   0.1564
  -7.500  -0.3501   0.10221   0.09713  -0.0249  1.0000  0.0730  -2.0903   0.0000   0.0000   0.0000   0.1666
  -7.000  -0.3731   0.09709   0.09214  -0.0224  1.0000  0.0720  -2.1967   0.0000   0.0000   0.0000   0.1791
  -6.500  -0.4069   0.09231   0.08750  -0.0189  1.0000  0.0709  -2.3207   0.0000   0.0000   0.0000   0.1941
  -6.000  -0.3932   0.08142   0.07659  -0.0319  0.9897  0.0707  -2.4691   0.0000   0.0000   0.0000   0.1593
  -5.500  -0.3207   0.04057   0.03406  -0.0951  0.9788  0.0744  -3.2616   0.0000   0.0000   0.0000  -0.0599
  -5.000  -0.2408   0.03802   0.03104  -0.1038  0.9664  0.0874  -2.8946   0.0000   0.0000   0.0000  -0.1968
  -4.500  -0.1603   0.03553   0.02807  -0.1111  0.9544  0.0986  -2.5492   0.0000   0.0000   0.0000  -0.4642
  -4.000  -0.0743   0.03191   0.02369  -0.1187  0.9434  0.1083  -2.2528   0.0000   0.0000   0.0000  -1.3896
  -3.500   0.0091   0.03015   0.02172  -0.1242  0.9313  0.1217  -2.0403   0.0000   0.0000   0.0000  14.1711
  -3.000   0.0838   0.02912   0.02050  -0.1277  0.9146  0.1428  -1.8277   0.0000   0.0000   0.0000   1.8008
  -2.500   0.1654   0.02819   0.01951  -0.1320  0.9003  0.1681  -1.5959   0.0000   0.0000   0.0000   1.0584
  -2.000   0.2390   0.02711   0.01832  -0.1346  0.8822  0.1920  -1.3998   0.0000   0.0000   0.0000   0.8182
  -1.500   0.3232   0.02575   0.01695  -0.1385  0.8677  0.2197  -1.2053   0.0000   0.0000   0.0000   0.6809
  -1.000   0.3962   0.02456   0.01578  -0.1403  0.8482  0.2502  -1.0281   0.0000   0.0000   0.0000   0.6046
  -0.500   0.4707   0.02323   0.01461  -0.1420  0.8292  0.2855  -0.8501   0.0000   0.0000   0.0000   0.5508
   0.000   0.5499   0.02179   0.01334  -0.1442  0.8095  0.3340  -0.8960   0.0000   0.0000   0.0000   0.5105
   0.500   0.6311   0.02034   0.01211  -0.1467  0.7857  0.3966  -0.9889   0.0000   0.0000   0.0000   0.4798
   1.000   0.7142   0.01912   0.01115  -0.1496  0.7560  0.4908  -1.0918   0.0000   0.0000   0.0000   0.4561
   1.500   0.7937   0.01819   0.01055  -0.1519  0.7189  0.6269  -1.2029   0.0000   0.0000   0.0000   0.4372
   2.000   0.8447   0.01716   0.01000  -0.1478  0.6777  1.0000  -1.2954   0.0000   0.0000   0.0000   0.4202
   2.500   0.9142   0.01753   0.00981  -0.1492  0.6307  1.0000  -1.4055   0.0000   0.0000   0.0000   0.4078
   3.000   0.9732   0.01814   0.00996  -0.1487  0.5845  1.0000  -1.5074   0.0000   0.0000   0.0000   0.3966
   3.500   1.0256   0.01893   0.01034  -0.1470  0.5410  1.0000  -1.6041   0.0000   0.0000   0.0000   0.3866
   4.000   1.0741   0.01983   0.01091  -0.1448  0.5005  1.0000  -1.6975   0.0000   0.0000   0.0000   0.3773
   4.500   1.1209   0.02082   0.01159  -0.1423  0.4635  1.0000  -1.7978   0.0000   0.0000   0.0000   0.3688
   5.000   1.1645   0.02188   0.01238  -0.1393  0.4289  1.0000  -1.9027   0.0000   0.0000   0.0000   0.3608
   5.500   1.2077   0.02301   0.01330  -0.1364  0.3981  1.0000  -2.0085   0.0000   0.0000   0.0000   0.3534
   6.000   1.2499   0.02422   0.01437  -0.1334  0.3709  1.0000  -2.1181   0.0000   0.0000   0.0000   0.3465
   6.500   1.2925   0.02552   0.01551  -0.1305  0.3475  1.0000  -2.2329   0.0000   0.0000   0.0000   0.3400
   7.000   1.3338   0.02690   0.01679  -0.1275  0.3262  1.0000  -2.3531   0.0000   0.0000   0.0000   0.3339
   7.500   1.3753   0.02840   0.01831  -0.1247  0.3074  1.0000  -2.4780   0.0000   0.0000   0.0000   0.3282
   8.000   1.4166   0.02996   0.01976  -0.1219  0.2902  1.0000  -2.6048   0.0000   0.0000   0.0000   0.3228
   8.500   1.4492   0.03162   0.02150  -0.1177  0.2732  1.0000  -2.7186   0.0000   0.0000   0.0000   0.3172
   9.000   1.4853   0.03335   0.02320  -0.1143  0.2586  1.0000  -2.8500   0.0000   0.0000   0.0000   0.3121
   9.500   1.5223   0.03529   0.02514  -0.1112  0.2457  1.0000  -3.0170   0.0000   0.0000   0.0000   0.3074
  10.000   1.5515   0.03743   0.02749  -0.1070  0.2336  1.0000  -3.1697   0.0000   0.0000   0.0000   0.3025
  10.500   1.5786   0.03971   0.02991  -0.1028  0.2225  1.0000  -3.3201   0.0000   0.0000   0.0000   0.2978
  11.000   1.6067   0.04214   0.03245  -0.0990  0.2127  1.0000  -3.4740   0.0000   0.0000   0.0000   0.2934
  11.500   1.6303   0.04471   0.03516  -0.0948  0.2034  1.0000  -3.6202   0.0000   0.0000   0.0000   0.2890
  12.000   1.6344   0.04818   0.03903  -0.0890  0.1952  1.0000  -3.7185   0.0000   0.0000   0.0000   0.2844
  12.500   1.6416   0.05202   0.04322  -0.0842  0.1882  1.0000  -3.8219   0.0000   0.0000   0.0000   0.2803
  13.000   1.6570   0.05524   0.04654  -0.0805  0.1806  1.0000  -3.9524   0.0000   0.0000   0.0000   0.2767
  13.500   1.6348   0.06091   0.05269  -0.0754  0.1739  1.0000  -3.9826   0.0000   0.0000   0.0000   0.2732
  14.000   1.6168   0.06708   0.05919  -0.0721  0.1676  1.0000  -4.0198   0.0000   0.0000   0.0000   0.2706
  15.000   1.5420   0.08624   0.07918  -0.0714  0.1574  1.0000  -3.9835   0.0000   0.0000   0.0000   0.2702
  16.000   1.1785   0.17504   0.16890  -0.1236  0.1395  1.0000  -2.4363   0.0000   0.0000   0.0000   0.3296
  16.500   1.1531   0.19146   0.18537  -0.1345  0.1322  1.0000  -2.2136   0.0000   0.0000   0.0000   0.3411
  17.000   1.1631   0.19857   0.19252  -0.1384  0.1257  1.0000  -2.2507   0.0000   0.0000   0.0000   0.3425
  17.500   1.1751   0.20517   0.19919  -0.1421  0.1195  1.0000  -2.3180   0.0000   0.0000   0.0000   0.3434
  18.000   1.1770   0.21509   0.20915  -0.1484  0.1158  1.0000  -2.2904   0.0000   0.0000   0.0000   0.3478
  18.500   1.1755   0.22568   0.21980  -0.1558  0.1137  1.0000  -2.2188   0.0000   0.0000   0.0000   0.3537
  19.000   1.1829   0.23404   0.22822  -0.1615  0.1118  1.0000  -2.2097   0.0000   0.0000   0.0000   0.3567
  19.500   1.2011   0.23899   0.23321  -0.1641  0.1056  1.0000  -2.3095   0.0000   0.0000   0.0000   0.3556
  20.000   1.2230   0.24204   0.23636  -0.1657  0.0962  1.0000  -2.4633   0.0000   0.0000   0.0000   0.3530


