xflr5 v6.61

 Calculated polar for: E63_4_27

 1 1 Reynolds number fixed          Mach number fixed         

 xtrf =   1.000 (top)        1.000 (bottom)
 Mach =   0.200     Re =     0.060 e 6     Ncrit =   7.000

  alpha     CL        CD       CDp       Cm    Top Xtr Bot Xtr   Cpmin    Chinge    XCp    
 ------- -------- --------- --------- -------- ------- ------- -------- --------- ---------
 -20.500  -0.6535   0.25568   0.24820   0.0183  1.0000  0.0226  -1.4448   0.0000   0.0000   0.0000   0.2720
 -20.000  -0.6385   0.24907   0.24158   0.0157  1.0000  0.0235  -1.4015   0.0000   0.0000   0.0000   0.2689
 -19.500  -0.6235   0.24335   0.23587   0.0129  1.0000  0.0245  -1.3801   0.0000   0.0000   0.0000   0.2653
 -19.000  -0.6084   0.23781   0.23034   0.0100  1.0000  0.0256  -1.3648   0.0000   0.0000   0.0000   0.2614
 -18.500  -0.5934   0.23262   0.22516   0.0071  1.0000  0.0270  -1.3587   0.0000   0.0000   0.0000   0.2572
 -18.000  -0.5792   0.22900   0.22158   0.0037  1.0000  0.0279  -1.3793   0.0000   0.0000   0.0000   0.2519
 -17.500  -0.5680   0.22744   0.22006   0.0000  1.0000  0.0282  -1.4188   0.0000   0.0000   0.0000   0.2459
 -17.000  -0.5509   0.21741   0.21002  -0.0014  1.0000  0.0289  -1.3404   0.0000   0.0000   0.0000   0.2434
 -16.500  -0.5357   0.20980   0.20242  -0.0029  1.0000  0.0302  -1.2578   0.0000   0.0000   0.0000   0.2407
 -16.000  -0.5216   0.20384   0.19649  -0.0049  1.0000  0.0316  -1.2399   0.0000   0.0000   0.0000   0.2370
 -15.500  -0.5078   0.19812   0.19080  -0.0069  1.0000  0.0331  -1.2422   0.0000   0.0000   0.0000   0.2329
 -15.000  -0.4943   0.19256   0.18527  -0.0089  1.0000  0.0347  -1.2543   0.0000   0.0000   0.0000   0.2286
 -14.500  -0.4816   0.18744   0.18019  -0.0111  1.0000  0.0362  -1.2816   0.0000   0.0000   0.0000   0.2238
 -14.000  -0.4707   0.18343   0.17623  -0.0135  1.0000  0.0370  -1.3337   0.0000   0.0000   0.0000   0.2183
 -13.500  -0.4631   0.18054   0.17336  -0.0161  1.0000  0.0373  -1.4016   0.0000   0.0000   0.0000   0.2125
 -13.000  -0.4455   0.17021   0.16307  -0.0159  1.0000  0.0388  -1.3137   0.0000   0.0000   0.0000   0.2114
 -12.500  -0.4333   0.16408   0.15698  -0.0169  1.0000  0.0409  -1.2851   0.0000   0.0000   0.0000   0.2083
 -12.000  -0.4223   0.15860   0.15156  -0.0181  1.0000  0.0431  -1.2793   0.0000   0.0000   0.0000   0.2045
 -11.500  -0.4133   0.15410   0.14712  -0.0197  1.0000  0.0451  -1.3005   0.0000   0.0000   0.0000   0.1998
 -11.000  -0.4098   0.15169   0.14481  -0.0219  1.0000  0.0459  -1.3631   0.0000   0.0000   0.0000   0.1942
 -10.500  -0.3938   0.14236   0.13554  -0.0211  1.0000  0.0481  -1.2656   0.0000   0.0000   0.0000   0.1939
 -10.000  -0.3839   0.13665   0.12990  -0.0214  1.0000  0.0514  -1.2205   0.0000   0.0000   0.0000   0.1920
  -9.500  -0.3777   0.13239   0.12574  -0.0223  1.0000  0.0546  -1.2247   0.0000   0.0000   0.0000   0.1888
  -9.000  -0.3795   0.13048   0.12391  -0.0237  1.0000  0.0557  -1.2852   0.0000   0.0000   0.0000   0.1855
  -8.500  -0.3638   0.12160   0.11510  -0.0221  1.0000  0.0585  -1.1992   0.0000   0.0000   0.0000   0.1871
  -8.000  -0.3582   0.11670   0.11031  -0.0215  1.0000  0.0621  -1.2009   0.0000   0.0000   0.0000   0.1880
  -7.500  -0.3609   0.11370   0.10747  -0.0211  1.0000  0.0649  -1.2552   0.0000   0.0000   0.0000   0.1898
  -7.000  -0.3751   0.11261   0.10660  -0.0200  1.0000  0.0657  -1.3468   0.0000   0.0000   0.0000   0.1953
  -5.000  -0.3409   0.08964   0.08413  -0.0190  1.0000  0.0829  -1.3145   0.0000   0.0000   0.0000   0.1927
  -4.500  -0.3191   0.08390   0.07848  -0.0249  1.0000  0.0883  -1.3478   0.0000   0.0000   0.0000   0.1705
  -4.000  -0.2824   0.07765   0.07219  -0.0341  1.0000  0.0979  -1.3690   0.0000   0.0000   0.0000   0.1274
  -3.500  -0.2467   0.07083   0.06539  -0.0393  1.0000  0.1097  -1.3352   0.0000   0.0000   0.0000   0.0888
  -3.000  -0.1842   0.06361   0.05809  -0.0521  1.0000  0.1305  -1.3098   0.0000   0.0000   0.0000  -0.0355
  -1.500   0.1589   0.03667   0.02936  -0.1110  1.0000  0.0829  -1.2678   0.0000   0.0000   0.0000   0.9509
  -1.000   0.2893   0.02962   0.02072  -0.1267  1.0000  0.0583  -1.4226   0.0000   0.0000   0.0000   0.6890
  -0.500   0.3735   0.02662   0.01678  -0.1323  1.0000  0.0681  -1.4079   0.0000   0.0000   0.0000   0.6044
   0.000   0.4458   0.02477   0.01431  -0.1347  1.0000  0.0863  -1.3762   0.0000   0.0000   0.0000   0.5519
   0.500   0.5137   0.02202   0.01341  -0.1369  1.0000  1.0000  -1.2262   0.0000   0.0000   0.0000   0.5158
   1.000   0.5607   0.02324   0.01401  -0.1363  1.0000  1.0000  -0.7737   0.0000   0.0000   0.0000   0.4920
   1.500   0.6047   0.02470   0.01512  -0.1357  1.0000  1.0000  -0.5770   0.0000   0.0000   0.0000   0.4729
   2.000   0.6607   0.02646   0.01673  -0.1380  0.9915  1.0000  -0.6395   0.0000   0.0000   0.0000   0.4567
   2.500   0.7509   0.02769   0.01793  -0.1459  0.9633  1.0000  -0.7526   0.0000   0.0000   0.0000   0.4417
   3.000   0.8404   0.02812   0.01857  -0.1526  0.9326  1.0000  -0.8910   0.0000   0.0000   0.0000   0.4285
   3.500   0.9279   0.02777   0.01858  -0.1577  0.8969  1.0000  -1.0900   0.0000   0.0000   0.0000   0.4164
   4.000   1.0198   0.02639   0.01783  -0.1617  0.8574  1.0000  -1.5572   0.0000   0.0000   0.0000   0.4045
   4.500   1.1100   0.02394   0.01620  -0.1630  0.8037  1.0000  -2.1771   0.0000   0.0000   0.0000   0.3923
   5.000   1.2040   0.02163   0.01456  -0.1636  0.6948  1.0000  -2.8546   0.0000   0.0000   0.0000   0.3808
   5.500   1.2491   0.02334   0.01494  -0.1567  0.4039  1.0000  -3.3271   0.0000   0.0000   0.0000   0.3696
   6.000   1.2670   0.02893   0.01855  -0.1504  0.1255  1.0000  -3.6257   0.0000   0.0000   0.0000   0.3622
   6.500   1.3013   0.03468   0.02403  -0.1453  0.0710  1.0000  -3.8115   0.0000   0.0000   0.0000   0.3546
   7.000   1.3515   0.04022   0.02980  -0.1430  0.0544  1.0000  -4.4721   0.0000   0.0000   0.0000   0.3481
   7.500   1.4084   0.04762   0.03808  -0.1414  0.0486  1.0000  -5.0656   0.0000   0.0000   0.0000   0.3421
   8.000   1.4436   0.05708   0.04853  -0.1375  0.0472  1.0000  -5.4005   0.0000   0.0000   0.0000   0.3363
   8.500   1.4537   0.06685   0.05944  -0.1310  0.0472  1.0000  -5.5114   0.0000   0.0000   0.0000   0.3307
   9.000   1.4398   0.07618   0.06980  -0.1234  0.0469  1.0000  -5.4819   0.0000   0.0000   0.0000   0.3258
   9.500   1.4075   0.08496   0.07932  -0.1159  0.0468  1.0000  -5.3837   0.0000   0.0000   0.0000   0.3219
  10.000   1.3691   0.09400   0.08884  -0.1106  0.0470  1.0000  -5.2735   0.0000   0.0000   0.0000   0.3198
  10.500   1.3339   0.10471   0.09990  -0.1101  0.0473  1.0000  -5.1529   0.0000   0.0000   0.0000   0.3209
  11.000   1.1246   0.12590   0.12173  -0.1123  0.0534  1.0000  -3.9064   0.0000   0.0000   0.0000   0.3379
  11.500   1.0841   0.14140   0.13729  -0.1211  0.0553  1.0000  -3.5038   0.0000   0.0000   0.0000   0.3494


