xflr5 v6.61

 Calculated polar for: E63_12_00

 1 1 Reynolds number fixed          Mach number fixed         

 xtrf =   1.000 (top)        1.000 (bottom)
 Mach =   0.200     Re =     0.125 e 6     Ncrit =   9.000

  alpha     CL        CD       CDp       Cm    Top Xtr Bot Xtr   Cpmin    Chinge    XCp    
 ------- -------- --------- --------- -------- ------- ------- -------- --------- ---------
 -20.000  -0.5260   0.24261   0.23697  -0.0026  1.0000  0.0384  -1.4258   0.0000   0.0000   0.0000   0.2204
 -19.500  -0.5095   0.23702   0.23140  -0.0044  1.0000  0.0396  -1.3833   0.0000   0.0000   0.0000   0.2171
 -19.000  -0.4939   0.23176   0.22616  -0.0065  1.0000  0.0415  -1.3644   0.0000   0.0000   0.0000   0.2130
 -18.500  -0.4791   0.22645   0.22088  -0.0089  1.0000  0.0438  -1.3711   0.0000   0.0000   0.0000   0.2080
 -18.000  -0.4670   0.22204   0.21650  -0.0122  1.0000  0.0455  -1.4311   0.0000   0.0000   0.0000   0.2010
 -17.500  -0.4613   0.21989   0.21440  -0.0162  1.0000  0.0460  -1.5340   0.0000   0.0000   0.0000   0.1928
 -17.000  -0.4486   0.21332   0.20787  -0.0182  1.0000  0.0463  -1.5517   0.0000   0.0000   0.0000   0.1876
 -16.500  -0.4255   0.20418   0.19874  -0.0177  1.0000  0.0474  -1.4259   0.0000   0.0000   0.0000   0.1866
 -16.000  -0.4100   0.19857   0.19317  -0.0186  1.0000  0.0490  -1.3741   0.0000   0.0000   0.0000   0.1831
 -15.500  -0.3963   0.19318   0.18782  -0.0199  1.0000  0.0510  -1.3494   0.0000   0.0000   0.0000   0.1786
 -15.000  -0.3844   0.18779   0.18248  -0.0215  1.0000  0.0536  -1.3493   0.0000   0.0000   0.0000   0.1732
 -13.500  -0.3543   0.17071   0.16554  -0.0255  1.0000  0.0575  -1.3698   0.0000   0.0000   0.0000   0.1585
 -13.000  -0.3411   0.16527   0.16015  -0.0255  1.0000  0.0599  -1.3254   0.0000   0.0000   0.0000   0.1561
 -12.500  -0.3337   0.16022   0.15516  -0.0265  1.0000  0.0643  -1.3576   0.0000   0.0000   0.0000   0.1519
 -12.000  -0.3554   0.15914   0.15419  -0.0309  1.0000  0.0658  -1.5909   0.0000   0.0000   0.0000   0.1462
 -11.500  -0.3194   0.14890   0.14399  -0.0272  1.0000  0.0681  -1.3985   0.0000   0.0000   0.0000   0.1472
 -11.000  -0.3104   0.14372   0.13887  -0.0267  1.0000  0.0708  -1.3799   0.0000   0.0000   0.0000   0.1468
 -10.500  -0.3099   0.13899   0.13422  -0.0274  1.0000  0.0745  -1.4303   0.0000   0.0000   0.0000   0.1455
 -10.000  -0.3376   0.13684   0.13221  -0.0306  1.0000  0.0757  -1.6443   0.0000   0.0000   0.0000   0.1452
  -9.750  -0.3222   0.13176   0.12715  -0.0287  1.0000  0.0763  -1.5698   0.0000   0.0000   0.0000   0.1465
  -9.500  -0.3089   0.12811   0.12352  -0.0268  1.0000  0.0773  -1.4919   0.0000   0.0000   0.0000   0.1487
  -9.250  -0.3033   0.12553   0.12097  -0.0256  1.0000  0.0784  -1.4570   0.0000   0.0000   0.0000   0.1512
  -9.000  -0.3008   0.12318   0.11867  -0.0248  1.0000  0.0798  -1.4413   0.0000   0.0000   0.0000   0.1538
  -8.750  -0.3005   0.12089   0.11642  -0.0240  1.0000  0.0814  -1.4395   0.0000   0.0000   0.0000   0.1566
  -8.500  -0.3029   0.11867   0.11426  -0.0235  1.0000  0.0834  -1.4546   0.0000   0.0000   0.0000   0.1594
  -8.250  -0.3153   0.11696   0.11262  -0.0239  1.0000  0.0855  -1.5280   0.0000   0.0000   0.0000   0.1622
  -8.000  -0.3372   0.11575   0.11150  -0.0247  1.0000  0.0862  -1.6454   0.0000   0.0000   0.0000   0.1659
  -7.750  -0.3561   0.11415   0.10999  -0.0247  1.0000  0.0864  -1.7381   0.0000   0.0000   0.0000   0.1708
  -7.500  -0.3441   0.11013   0.10601  -0.0224  1.0000  0.0871  -1.6676   0.0000   0.0000   0.0000   0.1751
  -7.250  -0.3323   0.10729   0.10316  -0.0198  1.0000  0.0882  -1.5862   0.0000   0.0000   0.0000   0.1805
  -7.000  -0.3315   0.10524   0.10116  -0.0179  1.0000  0.0895  -1.5589   0.0000   0.0000   0.0000   0.1865
  -6.750  -0.3360   0.10340   0.09937  -0.0162  1.0000  0.0909  -1.5572   0.0000   0.0000   0.0000   0.1928
  -6.500  -0.3447   0.10165   0.09769  -0.0146  1.0000  0.0925  -1.5740   0.0000   0.0000   0.0000   0.1994
  -6.250  -0.3586   0.10007   0.09618  -0.0128  1.0000  0.0939  -1.6083   0.0000   0.0000   0.0000   0.2067
  -6.000  -0.3797   0.09880   0.09500  -0.0107  1.0000  0.0952  -1.6654   0.0000   0.0000   0.0000   0.2149
  -5.750  -0.4215   0.08401   0.08023  -0.0248  0.9991  0.0657  -2.3107   0.0000   0.0000   0.0000   0.1839
  -5.500  -0.3922   0.08076   0.07698  -0.0285  0.9927  0.0672  -2.2065   0.0000   0.0000   0.0000   0.1700
  -5.250  -0.3137   0.03632   0.03049  -0.0949  0.9926  0.0659  -3.4801   0.0000   0.0000   0.0000  -0.0645
  -5.000  -0.2668   0.03459   0.02861  -0.1002  0.9882  0.0685  -3.3003   0.0000   0.0000   0.0000  -0.1389
  -4.750  -0.2195   0.03219   0.02574  -0.1058  0.9826  0.0718  -3.1576   0.0000   0.0000   0.0000  -0.2473
  -4.500  -0.1667   0.02974   0.02241  -0.1120  0.9793  0.0757  -3.0196   0.0000   0.0000   0.0000  -0.4413
  -4.250  -0.1270   0.02901   0.02172  -0.1147  0.9724  0.0790  -2.8232   0.0000   0.0000   0.0000  -0.6774
  -4.000  -0.0846   0.02844   0.02090  -0.1178  0.9658  0.0847  -2.6331   0.0000   0.0000   0.0000  -1.1751
  -3.750  -0.0384   0.02792   0.02029  -0.1214  0.9608  0.0902  -2.4279   0.0000   0.0000   0.0000  -2.9809
  -3.500   0.0020   0.02740   0.01956  -0.1239  0.9529  0.0984  -2.2460   0.0000   0.0000   0.0000  64.8732
  -3.250   0.0418   0.02727   0.01940  -0.1262  0.9449  0.1089  -2.0504   0.0000   0.0000   0.0000   3.3253
  -3.000   0.0832   0.02706   0.01920  -0.1287  0.9376  0.1205  -1.8592   0.0000   0.0000   0.0000   1.8210
  -2.750   0.1288   0.02653   0.01864  -0.1318  0.9318  0.1328  -1.7360   0.0000   0.0000   0.0000   1.2877
  -2.500   0.1678   0.02599   0.01807  -0.1337  0.9235  0.1453  -1.6375   0.0000   0.0000   0.0000   1.0561
  -2.250   0.2087   0.02555   0.01756  -0.1358  0.9156  0.1607  -1.5301   0.0000   0.0000   0.0000   0.9071
  -2.000   0.2565   0.02513   0.01720  -0.1390  0.9103  0.1789  -1.3992   0.0000   0.0000   0.0000   0.7965
  -1.750   0.2950   0.02469   0.01673  -0.1406  0.9010  0.1963  -1.2911   0.0000   0.0000   0.0000   0.7296
  -1.500   0.3336   0.02420   0.01632  -0.1420  0.8920  0.2128  -1.1818   0.0000   0.0000   0.0000   0.6779
  -1.250   0.3740   0.02357   0.01569  -0.1437  0.8837  0.2297  -1.0849   0.0000   0.0000   0.0000   0.6355
  -1.000   0.4224   0.02276   0.01492  -0.1467  0.8788  0.2508  -0.9810   0.0000   0.0000   0.0000   0.5977
  -0.750   0.4608   0.02211   0.01434  -0.1479  0.8694  0.2712  -0.8919   0.0000   0.0000   0.0000   0.5708
  -0.500   0.5003   0.02139   0.01372  -0.1492  0.8604  0.2943  -0.8018   0.0000   0.0000   0.0000   0.5475
  -0.250   0.5421   0.02052   0.01299  -0.1507  0.8522  0.3201  -0.8250   0.0000   0.0000   0.0000   0.5269
   0.000   0.5915   0.01939   0.01200  -0.1535  0.8469  0.3556  -0.8759   0.0000   0.0000   0.0000   0.5079
   0.250   0.6329   0.01853   0.01129  -0.1549  0.8369  0.3940  -0.9226   0.0000   0.0000   0.0000   0.4927
   0.500   0.6764   0.01763   0.01059  -0.1567  0.8265  0.4400  -0.9714   0.0000   0.0000   0.0000   0.4793
   0.750   0.7225   0.01673   0.00992  -0.1590  0.8152  0.5031  -1.0242   0.0000   0.0000   0.0000   0.4673
   1.000   0.7659   0.01597   0.00945  -0.1607  0.8007  0.5849  -1.0767   0.0000   0.0000   0.0000   0.4568
   1.250   0.8071   0.01525   0.00905  -0.1619  0.7839  0.6997  -1.1304   0.0000   0.0000   0.0000   0.4472
   1.500   0.8304   0.01436   0.00855  -0.1590  0.7647  0.9559  -1.1719   0.0000   0.0000   0.0000   0.4377
   1.750   0.8742   0.01424   0.00817  -0.1613  0.7416  1.0000  -1.2342   0.0000   0.0000   0.0000   0.4305
   2.000   0.9141   0.01425   0.00792  -0.1628  0.7169  1.0000  -1.2937   0.0000   0.0000   0.0000   0.4238
   2.250   0.9461   0.01442   0.00786  -0.1629  0.6899  1.0000  -1.3463   0.0000   0.0000   0.0000   0.4175
   2.500   0.9771   0.01465   0.00785  -0.1628  0.6633  1.0000  -1.3986   0.0000   0.0000   0.0000   0.4116
   2.750   1.0044   0.01495   0.00795  -0.1620  0.6364  1.0000  -1.4475   0.0000   0.0000   0.0000   0.4060
   3.000   1.0306   0.01529   0.00808  -0.1611  0.6101  1.0000  -1.4962   0.0000   0.0000   0.0000   0.4006
   3.250   1.0565   0.01569   0.00824  -0.1601  0.5853  1.0000  -1.5478   0.0000   0.0000   0.0000   0.3955
   3.500   1.0797   0.01610   0.00848  -0.1586  0.5603  1.0000  -1.5989   0.0000   0.0000   0.0000   0.3906
   3.750   1.1027   0.01655   0.00875  -0.1572  0.5367  1.0000  -1.6517   0.0000   0.0000   0.0000   0.3859
   4.000   1.1255   0.01701   0.00906  -0.1557  0.5140  1.0000  -1.7044   0.0000   0.0000   0.0000   0.3814
   4.250   1.1479   0.01750   0.00938  -0.1542  0.4925  1.0000  -1.7571   0.0000   0.0000   0.0000   0.3770
   4.500   1.1701   0.01801   0.00973  -0.1527  0.4721  1.0000  -1.8099   0.0000   0.0000   0.0000   0.3729
   4.750   1.1924   0.01854   0.01009  -0.1513  0.4530  1.0000  -1.8651   0.0000   0.0000   0.0000   0.3689
   5.000   1.2136   0.01907   0.01050  -0.1496  0.4341  1.0000  -1.9213   0.0000   0.0000   0.0000   0.3650
   5.250   1.2349   0.01962   0.01098  -0.1480  0.4165  1.0000  -1.9780   0.0000   0.0000   0.0000   0.3612
   5.500   1.2570   0.02020   0.01142  -0.1466  0.4003  1.0000  -2.0361   0.0000   0.0000   0.0000   0.3576
   5.750   1.2785   0.02079   0.01193  -0.1451  0.3847  1.0000  -2.0969   0.0000   0.0000   0.0000   0.3541
   6.000   1.3002   0.02140   0.01245  -0.1437  0.3702  1.0000  -2.1597   0.0000   0.0000   0.0000   0.3508
   6.250   1.3223   0.02203   0.01298  -0.1423  0.3568  1.0000  -2.2238   0.0000   0.0000   0.0000   0.3475
   6.500   1.3444   0.02268   0.01352  -0.1410  0.3440  1.0000  -2.2883   0.0000   0.0000   0.0000   0.3444
   6.750   1.3648   0.02333   0.01414  -0.1393  0.3313  1.0000  -2.3501   0.0000   0.0000   0.0000   0.3413
   7.000   1.3854   0.02400   0.01484  -0.1378  0.3193  1.0000  -2.4128   0.0000   0.0000   0.0000   0.3383
   7.250   1.4061   0.02469   0.01549  -0.1362  0.3081  1.0000  -2.4758   0.0000   0.0000   0.0000   0.3353
   7.500   1.4266   0.02540   0.01616  -0.1347  0.2976  1.0000  -2.5401   0.0000   0.0000   0.0000   0.3325
   7.750   1.4477   0.02614   0.01685  -0.1332  0.2878  1.0000  -2.6281   0.0000   0.0000   0.0000   0.3297
   8.000   1.4702   0.02691   0.01754  -0.1321  0.2787  1.0000  -2.7197   0.0000   0.0000   0.0000   0.3272
   8.250   1.4879   0.02765   0.01833  -0.1301  0.2696  1.0000  -2.8022   0.0000   0.0000   0.0000   0.3243
   8.500   1.5056   0.02845   0.01916  -0.1281  0.2609  1.0000  -2.8850   0.0000   0.0000   0.0000   0.3216
   8.750   1.5248   0.02929   0.02001  -0.1264  0.2529  1.0000  -2.9718   0.0000   0.0000   0.0000   0.3191
   9.000   1.5482   0.03017   0.02081  -0.1256  0.2455  1.0000  -3.0684   0.0000   0.0000   0.0000   0.3168
   9.250   1.5627   0.03101   0.02174  -0.1231  0.2379  1.0000  -3.1467   0.0000   0.0000   0.0000   0.3141
   9.500   1.5770   0.03189   0.02267  -0.1207  0.2305  1.0000  -3.2259   0.0000   0.0000   0.0000   0.3114
   9.750   1.5940   0.03270   0.02349  -0.1188  0.2233  1.0000  -3.3139   0.0000   0.0000   0.0000   0.3090
  10.000   1.6035   0.03353   0.02441  -0.1157  0.2162  1.0000  -3.3853   0.0000   0.0000   0.0000   0.3062
  10.250   1.6143   0.03447   0.02544  -0.1129  0.2096  1.0000  -3.4592   0.0000   0.0000   0.0000   0.3036
  10.500   1.6315   0.03529   0.02615  -0.1112  0.2032  1.0000  -3.5509   0.0000   0.0000   0.0000   0.3014
  10.750   1.6350   0.03640   0.02750  -0.1075  0.1974  1.0000  -3.6072   0.0000   0.0000   0.0000   0.2985
  11.000   1.6513   0.03731   0.02832  -0.1058  0.1917  1.0000  -3.6974   0.0000   0.0000   0.0000   0.2964
  11.250   1.6534   0.03854   0.02979  -0.1022  0.1863  1.0000  -3.7512   0.0000   0.0000   0.0000   0.2936
  11.500   1.6699   0.03951   0.03066  -0.1006  0.1811  1.0000  -3.8428   0.0000   0.0000   0.0000   0.2916
  11.750   1.6697   0.04097   0.03244  -0.0970  0.1763  1.0000  -3.8959   0.0000   0.0000   0.0000   0.2890
  12.000   1.6835   0.04200   0.03340  -0.0952  0.1715  1.0000  -4.0226   0.0000   0.0000   0.0000   0.2870
  12.250   1.6835   0.04369   0.03533  -0.0920  0.1671  1.0000  -4.1001   0.0000   0.0000   0.0000   0.2847
  12.500   1.6889   0.04508   0.03680  -0.0896  0.1626  1.0000  -4.1995   0.0000   0.0000   0.0000   0.2825
  12.750   1.6956   0.04660   0.03838  -0.0874  0.1585  1.0000  -4.3029   0.0000   0.0000   0.0000   0.2806
  13.000   1.6930   0.04861   0.04062  -0.0847  0.1544  1.0000  -4.3730   0.0000   0.0000   0.0000   0.2785
  13.250   1.7032   0.04998   0.04197  -0.0831  0.1506  1.0000  -4.4912   0.0000   0.0000   0.0000   0.2768
  13.500   1.7021   0.05225   0.04444  -0.0808  0.1472  1.0000  -4.5646   0.0000   0.0000   0.0000   0.2750
  13.750   1.6985   0.05473   0.04718  -0.0788  0.1439  1.0000  -4.6288   0.0000   0.0000   0.0000   0.2733
  14.000   1.7053   0.05652   0.04901  -0.0773  0.1406  1.0000  -4.7341   0.0000   0.0000   0.0000   0.2718
  14.250   1.7080   0.05883   0.05142  -0.0759  0.1376  1.0000  -4.8217   0.0000   0.0000   0.0000   0.2703
  14.500   1.6959   0.06235   0.05524  -0.0743  0.1349  1.0000  -4.8501   0.0000   0.0000   0.0000   0.2692
  14.750   1.6913   0.06534   0.05840  -0.0732  0.1320  1.0000  -4.9090   0.0000   0.0000   0.0000   0.2681
  15.000   1.7040   0.06682   0.05982  -0.0724  0.1289  1.0000  -5.0391   0.0000   0.0000   0.0000   0.2667
  15.500   1.6702   0.07613   0.06971  -0.0718  0.1245  1.0000  -5.0439   0.0000   0.0000   0.0000   0.2661
  16.000   1.6614   0.08321   0.07703  -0.0720  0.1194  1.0000  -5.1521   0.0000   0.0000   0.0000   0.2653
  16.500   1.6247   0.09480   0.08907  -0.0751  0.1156  1.0000  -5.1188   0.0000   0.0000   0.0000   0.2670
  17.000   1.5253   0.11834   0.11332  -0.0876  0.1134  1.0000  -4.7414   0.0000   0.0000   0.0000   0.2772
  17.500   1.5748   0.11679   0.11161  -0.0842  0.1073  1.0000  -5.1322   0.0000   0.0000   0.0000   0.2719
  19.000   1.2143   0.24015   0.23559  -0.1709  0.1093  1.0000  -2.2991   0.0000   0.0000   0.0000   0.3618
  19.500   1.2377   0.24678   0.24234  -0.1725  0.1078  1.0000  -2.3976   0.0000   0.0000   0.0000   0.3592
  20.000   1.2561   0.24686   0.24244  -0.1743  0.0862  1.0000  -2.6033   0.0000   0.0000   0.0000   0.3569


