xflr5 v6.61

 Calculated polar for: E63_4_27

 1 1 Reynolds number fixed          Mach number fixed         

 xtrf =   1.000 (top)        1.000 (bottom)
 Mach =   0.200     Re =     0.100 e 6     Ncrit =   7.000

  alpha     CL        CD       CDp       Cm    Top Xtr Bot Xtr   Cpmin    Chinge    XCp    
 ------- -------- --------- --------- -------- ------- ------- -------- --------- ---------
 -16.000  -0.5219   0.20267   0.19696  -0.0042  1.0000  0.0169  -1.3016   0.0000   0.0000   0.0000   0.2382
 -15.500  -0.5084   0.19645   0.19076  -0.0058  1.0000  0.0179  -1.2614   0.0000   0.0000   0.0000   0.2349
 -15.000  -0.4950   0.19066   0.18500  -0.0077  1.0000  0.0190  -1.2568   0.0000   0.0000   0.0000   0.2310
 -14.500  -0.4819   0.18492   0.17928  -0.0095  1.0000  0.0199  -1.2674   0.0000   0.0000   0.0000   0.2270
 -14.000  -0.4692   0.17926   0.17365  -0.0113  1.0000  0.0209  -1.2899   0.0000   0.0000   0.0000   0.2228
 -13.500  -0.4569   0.17400   0.16839  -0.0132  1.0000  0.0217  -1.3351   0.0000   0.0000   0.0000   0.2181
 -13.000  -0.4464   0.16951   0.16394  -0.0154  1.0000  0.0220  -1.4036   0.0000   0.0000   0.0000   0.2127
 -12.500  -0.4384   0.16567   0.16016  -0.0176  1.0000  0.0222  -1.4803   0.0000   0.0000   0.0000   0.2073
 -12.000  -0.4235   0.15651   0.15104  -0.0171  1.0000  0.0230  -1.3734   0.0000   0.0000   0.0000   0.2069
 -11.500  -0.4126   0.15052   0.14508  -0.0178  1.0000  0.0240  -1.3330   0.0000   0.0000   0.0000   0.2043
 -11.000  -0.4025   0.14495   0.13957  -0.0186  1.0000  0.0252  -1.3156   0.0000   0.0000   0.0000   0.2013
 -10.500  -0.3929   0.13967   0.13434  -0.0194  1.0000  0.0265  -1.3104   0.0000   0.0000   0.0000   0.1981
 -10.000  -0.3850   0.13524   0.12999  -0.0206  1.0000  0.0276  -1.3342   0.0000   0.0000   0.0000   0.1941
  -9.500  -0.3818   0.13237   0.12721  -0.0221  1.0000  0.0281  -1.3940   0.0000   0.0000   0.0000   0.1899
  -9.000  -0.3828   0.12992   0.12487  -0.0232  1.0000  0.0283  -1.4563   0.0000   0.0000   0.0000   0.1874
  -8.500  -0.3649   0.11938   0.11433  -0.0210  1.0000  0.0294  -1.2912   0.0000   0.0000   0.0000   0.1903
  -8.000  -0.3582   0.11388   0.10890  -0.0200  1.0000  0.0308  -1.2441   0.0000   0.0000   0.0000   0.1923
  -7.500  -0.3548   0.10926   0.10438  -0.0189  1.0000  0.0323  -1.2443   0.0000   0.0000   0.0000   0.1949
  -7.000  -0.3550   0.10514   0.10037  -0.0173  1.0000  0.0339  -1.2623   0.0000   0.0000   0.0000   0.1995
  -6.500  -0.3611   0.10172   0.09708  -0.0148  1.0000  0.0353  -1.2986   0.0000   0.0000   0.0000   0.2074
  -6.000  -0.3646   0.09863   0.09414  -0.0148  1.0000  0.0367  -1.3759   0.0000   0.0000   0.0000   0.2082
  -5.500  -0.3514   0.09507   0.09069  -0.0225  1.0000  0.0373  -1.5186   0.0000   0.0000   0.0000   0.1848
  -5.000  -0.3480   0.08760   0.08332  -0.0160  1.0000  0.0397  -1.3734   0.0000   0.0000   0.0000   0.2028
  -4.500  -0.3274   0.08211   0.07789  -0.0204  1.0000  0.0441  -1.3765   0.0000   0.0000   0.0000   0.1863
  -4.000  -0.2862   0.07523   0.07104  -0.0318  1.0000  0.0471  -1.4481   0.0000   0.0000   0.0000   0.1373
  -3.500  -0.2537   0.06876   0.06453  -0.0357  1.0000  0.0522  -1.3740   0.0000   0.0000   0.0000   0.1072
  -3.000  -0.1843   0.06069   0.05636  -0.0506  1.0000  0.0587  -1.3845   0.0000   0.0000   0.0000  -0.0274
  -2.500  -0.0986   0.05261   0.04810  -0.0669  1.0000  0.0706  -1.3461   0.0000   0.0000   0.0000  -0.4337
  -2.000   0.0075   0.04451   0.03968  -0.0860  1.0000  0.0917  -1.2623   0.0000   0.0000   0.0000  11.8085
  -1.000   0.2932   0.02691   0.01961  -0.1268  1.0000  0.0399  -1.4223   0.0000   0.0000   0.0000   0.6835
  -0.500   0.3850   0.02379   0.01535  -0.1332  0.9994  0.0376  -1.4865   0.0000   0.0000   0.0000   0.5963
   0.000   0.4753   0.02189   0.01318  -0.1398  0.9953  0.0555  -1.3562   0.0000   0.0000   0.0000   0.5439
   1.000   0.6411   0.02003   0.01266  -0.1509  0.9725  1.0000  -0.5818   0.0000   0.0000   0.0000   0.4841
   1.500   0.7213   0.02030   0.01270  -0.1558  0.9539  1.0000  -0.6625   0.0000   0.0000   0.0000   0.4644
   2.000   0.8014   0.02019   0.01255  -0.1603  0.9334  1.0000  -0.7705   0.0000   0.0000   0.0000   0.4479
   2.500   0.8826   0.01968   0.01218  -0.1644  0.9111  1.0000  -0.9030   0.0000   0.0000   0.0000   0.4337
   3.000   0.9589   0.01888   0.01160  -0.1668  0.8839  1.0000  -1.0837   0.0000   0.0000   0.0000   0.4209
   3.500   1.0373   0.01756   0.01068  -0.1686  0.8511  1.0000  -1.4893   0.0000   0.0000   0.0000   0.4090
   4.000   1.1233   0.01613   0.00969  -0.1713  0.7947  1.0000  -2.0863   0.0000   0.0000   0.0000   0.3984
   4.500   1.2181   0.01584   0.00876  -0.1748  0.5787  1.0000  -2.7705   0.0000   0.0000   0.0000   0.3887
   5.000   1.2485   0.01863   0.01032  -0.1687  0.3381  1.0000  -3.1601   0.0000   0.0000   0.0000   0.3798
   5.500   1.2742   0.02266   0.01295  -0.1634  0.1052  1.0000  -3.5295   0.0000   0.0000   0.0000   0.3723
   6.000   1.3036   0.02697   0.01691  -0.1579  0.0454  1.0000  -3.8053   0.0000   0.0000   0.0000   0.3646
   6.500   1.3360   0.03105   0.02121  -0.1529  0.0372  1.0000  -4.3249   0.0000   0.0000   0.0000   0.3573
   7.000   1.3858   0.03626   0.02691  -0.1503  0.0339  1.0000  -5.0012   0.0000   0.0000   0.0000   0.3507
   7.500   1.4358   0.04313   0.03472  -0.1477  0.0316  1.0000  -5.5768   0.0000   0.0000   0.0000   0.3444
   8.000   1.4609   0.05150   0.04395  -0.1428  0.0283  1.0000  -5.9978   0.0000   0.0000   0.0000   0.3388
   8.500   1.4675   0.06065   0.05422  -0.1355  0.0282  1.0000  -6.0975   0.0000   0.0000   0.0000   0.3328
   9.000   1.4555   0.07047   0.06490  -0.1278  0.0285  1.0000  -6.0815   0.0000   0.0000   0.0000   0.3277


