xflr5 v6.61

 Calculated polar for: E63_12_00

 1 1 Reynolds number fixed          Mach number fixed         

 xtrf =   1.000 (top)        1.000 (bottom)
 Mach =   0.200     Re =     0.070 e 6     Ncrit =   7.000

  alpha     CL        CD       CDp       Cm    Top Xtr Bot Xtr   Cpmin    Chinge    XCp    
 ------- -------- --------- --------- -------- ------- ------- -------- --------- ---------
 -27.500  -0.7498   0.32418   0.31653   0.0442  1.0000  0.0376  -1.5986   0.0000   0.0000   0.0000   0.2742
 -27.000  -0.7337   0.31592   0.30825   0.0416  1.0000  0.0384  -1.5205   0.0000   0.0000   0.0000   0.2727
 -26.500  -0.7188   0.31061   0.30292   0.0382  1.0000  0.0393  -1.4767   0.0000   0.0000   0.0000   0.2701
 -26.000  -0.7040   0.30565   0.29795   0.0347  1.0000  0.0404  -1.4614   0.0000   0.0000   0.0000   0.2671
 -25.500  -0.6891   0.30073   0.29303   0.0311  1.0000  0.0416  -1.4512   0.0000   0.0000   0.0000   0.2638
 -25.000  -0.6741   0.29581   0.28811   0.0276  1.0000  0.0429  -1.4447   0.0000   0.0000   0.0000   0.2603
 -24.500  -0.6592   0.29099   0.28329   0.0240  1.0000  0.0442  -1.4440   0.0000   0.0000   0.0000   0.2564
 -24.000  -0.6447   0.28676   0.27905   0.0201  1.0000  0.0453  -1.4571   0.0000   0.0000   0.0000   0.2519
 -23.500  -0.6315   0.28367   0.27597   0.0159  1.0000  0.0458  -1.4855   0.0000   0.0000   0.0000   0.2467
 -23.000  -0.6202   0.28190   0.27422   0.0116  1.0000  0.0460  -1.5222   0.0000   0.0000   0.0000   0.2410
 -22.500  -0.6015   0.27228   0.26464   0.0096  1.0000  0.0466  -1.4612   0.0000   0.0000   0.0000   0.2387
 -22.000  -0.5836   0.26515   0.25752   0.0077  1.0000  0.0481  -1.3848   0.0000   0.0000   0.0000   0.2365
 -21.500  -0.5676   0.25986   0.25224   0.0052  1.0000  0.0500  -1.3422   0.0000   0.0000   0.0000   0.2329
 -21.000  -0.5521   0.25473   0.24710   0.0024  1.0000  0.0522  -1.3421   0.0000   0.0000   0.0000   0.2287
 -20.500  -0.5372   0.24977   0.24216  -0.0006  1.0000  0.0541  -1.3587   0.0000   0.0000   0.0000   0.2237
 -20.000  -0.5242   0.24586   0.23829  -0.0041  1.0000  0.0553  -1.4045   0.0000   0.0000   0.0000   0.2176
 -19.500  -0.5146   0.24347   0.23594  -0.0079  1.0000  0.0557  -1.4711   0.0000   0.0000   0.0000   0.2107
 -19.000  -0.4963   0.23517   0.22769  -0.0095  1.0000  0.0564  -1.4391   0.0000   0.0000   0.0000   0.2072
 -18.500  -0.4778   0.22808   0.22063  -0.0106  1.0000  0.0580  -1.3798   0.0000   0.0000   0.0000   0.2044
 -18.000  -0.4621   0.22259   0.21517  -0.0124  1.0000  0.0600  -1.3562   0.0000   0.0000   0.0000   0.2001
 -17.500  -0.4476   0.21730   0.20990  -0.0145  1.0000  0.0624  -1.3496   0.0000   0.0000   0.0000   0.1951
 -17.000  -0.4355   0.21260   0.20524  -0.0170  1.0000  0.0648  -1.3725   0.0000   0.0000   0.0000   0.1887
 -16.500  -0.4291   0.20972   0.20243  -0.0204  1.0000  0.0657  -1.4403   0.0000   0.0000   0.0000   0.1811
 -16.000  -0.4110   0.20171   0.19449  -0.0210  1.0000  0.0667  -1.3921   0.0000   0.0000   0.0000   0.1774
 -15.500  -0.3938   0.19542   0.18824  -0.0215  1.0000  0.0696  -1.3286   0.0000   0.0000   0.0000   0.1742
 -15.000  -0.3826   0.19062   0.18351  -0.0232  1.0000  0.0742  -1.3294   0.0000   0.0000   0.0000   0.1685
 -14.500  -0.3873   0.18976   0.18274  -0.0270  1.0000  0.0758  -1.4427   0.0000   0.0000   0.0000   0.1607
 -14.000  -0.3592   0.17923   0.17226  -0.0255  1.0000  0.0783  -1.3069   0.0000   0.0000   0.0000   0.1590
 -13.500  -0.3466   0.17371   0.16677  -0.0260  1.0000  0.0815  -1.2974   0.0000   0.0000   0.0000   0.1551
 -13.000  -0.3396   0.16892   0.16205  -0.0274  1.0000  0.0851  -1.3355   0.0000   0.0000   0.0000   0.1500
 -12.500  -0.3448   0.16619   0.15943  -0.0300  1.0000  0.0864  -1.4435   0.0000   0.0000   0.0000   0.1450
 -12.000  -0.3226   0.15757   0.15087  -0.0286  1.0000  0.0883  -1.3688   0.0000   0.0000   0.0000   0.1431
 -11.500  -0.3113   0.15202   0.14539  -0.0283  1.0000  0.0918  -1.3481   0.0000   0.0000   0.0000   0.1413
 -11.000  -0.3090   0.14736   0.14083  -0.0290  1.0000  0.0957  -1.3861   0.0000   0.0000   0.0000   0.1391
 -10.500  -0.3211   0.14429   0.13790  -0.0308  1.0000  0.0970  -1.4974   0.0000   0.0000   0.0000   0.1387
 -10.000  -0.2992   0.13627   0.12995  -0.0285  1.0000  0.0994  -1.4112   0.0000   0.0000   0.0000   0.1391
  -9.500  -0.2932   0.13113   0.12491  -0.0274  1.0000  0.1031  -1.4010   0.0000   0.0000   0.0000   0.1413
  -9.000  -0.3029   0.12714   0.12106  -0.0277  1.0000  0.1070  -1.4737   0.0000   0.0000   0.0000   0.1449
  -8.500  -0.3227   0.12357   0.11766  -0.0280  1.0000  0.1078  -1.5867   0.0000   0.0000   0.0000   0.1512
  -8.000  -0.3014   0.11638   0.11052  -0.0244  1.0000  0.1108  -1.4904   0.0000   0.0000   0.0000   0.1571
  -6.500  -0.3852   0.09684   0.09145  -0.0215  1.0000  0.0753  -2.0940   0.0000   0.0000   0.0000   0.1859
  -6.000  -0.4022   0.08974   0.08449  -0.0228  1.0000  0.0753  -2.2543   0.0000   0.0000   0.0000   0.1857
  -5.500  -0.3983   0.08638   0.08120  -0.0200  1.0000  0.0806  -2.1886   0.0000   0.0000   0.0000   0.1929
  -5.000  -0.3951   0.07687   0.07170  -0.0292  1.0000  0.0842  -2.3581   0.0000   0.0000   0.0000   0.1695
  -4.500  -0.3126   0.06104   0.05543  -0.0593  0.9891  0.0960  -2.4751   0.0000   0.0000   0.0000   0.0522
  -4.000  -0.1987   0.04572   0.03898  -0.0892  0.9801  0.1084  -2.4608   0.0000   0.0000   0.0000  -0.2114
  -3.500  -0.0980   0.03900   0.03134  -0.1037  0.9697  0.1159  -2.2267   0.0000   0.0000   0.0000  -0.8319
  -3.000  -0.0035   0.03459   0.02595  -0.1138  0.9566  0.1274  -1.9599   0.0000   0.0000   0.0000  -32.5517
  -2.500   0.0866   0.03286   0.02375  -0.1210  0.9420  0.1515  -1.6634   0.0000   0.0000   0.0000   1.6667
  -2.000   0.1660   0.03199   0.02285  -0.1256  0.9236  0.1810  -1.4624   0.0000   0.0000   0.0000   1.0138
  -1.500   0.2472   0.03094   0.02167  -0.1300  0.9048  0.2144  -1.2637   0.0000   0.0000   0.0000   0.7794
  -1.000   0.3273   0.02991   0.02063  -0.1338  0.8850  0.2520  -1.0852   0.0000   0.0000   0.0000   0.6600
  -0.500   0.4070   0.02883   0.01962  -0.1371  0.8642  0.2956  -0.9103   0.0000   0.0000   0.0000   0.5866
   0.000   0.4858   0.02768   0.01866  -0.1398  0.8427  0.3522  -0.7898   0.0000   0.0000   0.0000   0.5364
   0.500   0.5655   0.02627   0.01748  -0.1421  0.8208  0.4275  -0.8761   0.0000   0.0000   0.0000   0.4990
   1.000   0.6455   0.02454   0.01622  -0.1437  0.7979  0.5494  -0.9683   0.0000   0.0000   0.0000   0.4697
   1.500   0.7111   0.02234   0.01484  -0.1415  0.7731  0.7962  -1.0571   0.0000   0.0000   0.0000   0.4453
   2.000   0.7921   0.02107   0.01327  -0.1435  0.7404  1.0000  -1.1660   0.0000   0.0000   0.0000   0.4269
   2.500   0.8769   0.02060   0.01242  -0.1467  0.7007  1.0000  -1.2890   0.0000   0.0000   0.0000   0.4124
   3.000   0.9520   0.02059   0.01203  -0.1483  0.6544  1.0000  -1.4051   0.0000   0.0000   0.0000   0.4003
   3.500   1.0181   0.02100   0.01205  -0.1486  0.6062  1.0000  -1.5186   0.0000   0.0000   0.0000   0.3898
   4.000   1.0733   0.02180   0.01250  -0.1472  0.5587  1.0000  -1.6300   0.0000   0.0000   0.0000   0.3803
   4.500   1.1254   0.02278   0.01318  -0.1454  0.5149  1.0000  -1.7415   0.0000   0.0000   0.0000   0.3717
   5.000   1.1756   0.02391   0.01399  -0.1434  0.4751  1.0000  -1.8549   0.0000   0.0000   0.0000   0.3638
   5.500   1.2209   0.02519   0.01511  -0.1408  0.4383  1.0000  -1.9689   0.0000   0.0000   0.0000   0.3564
   6.000   1.2661   0.02657   0.01629  -0.1382  0.4055  1.0000  -2.0869   0.0000   0.0000   0.0000   0.3496
   6.500   1.3110   0.02804   0.01756  -0.1357  0.3762  1.0000  -2.2136   0.0000   0.0000   0.0000   0.3432
   7.000   1.3524   0.02967   0.01913  -0.1327  0.3496  1.0000  -2.3350   0.0000   0.0000   0.0000   0.3371
   7.500   1.3947   0.03141   0.02091  -0.1299  0.3264  1.0000  -2.4586   0.0000   0.0000   0.0000   0.3314
   8.000   1.4344   0.03328   0.02277  -0.1268  0.3052  1.0000  -2.6056   0.0000   0.0000   0.0000   0.3259
   8.500   1.4728   0.03528   0.02479  -0.1237  0.2862  1.0000  -2.7712   0.0000   0.0000   0.0000   0.3207
   9.000   1.5109   0.03737   0.02691  -0.1206  0.2693  1.0000  -2.9392   0.0000   0.0000   0.0000   0.3157
   9.500   1.5417   0.03979   0.02949  -0.1165  0.2542  1.0000  -3.0917   0.0000   0.0000   0.0000   0.3107
  10.000   1.5674   0.04236   0.03235  -0.1119  0.2405  1.0000  -3.2354   0.0000   0.0000   0.0000   0.3057
  10.500   1.5917   0.04519   0.03538  -0.1074  0.2284  1.0000  -3.3761   0.0000   0.0000   0.0000   0.3009
  11.000   1.6084   0.04829   0.03873  -0.1022  0.2174  1.0000  -3.5009   0.0000   0.0000   0.0000   0.2961
  11.500   1.6163   0.05201   0.04278  -0.0964  0.2079  1.0000  -3.6026   0.0000   0.0000   0.0000   0.2915
  12.000   1.6209   0.05622   0.04731  -0.0911  0.1997  1.0000  -3.7006   0.0000   0.0000   0.0000   0.2871
  12.500   1.6290   0.06026   0.05160  -0.0866  0.1914  1.0000  -3.8708   0.0000   0.0000   0.0000   0.2832
  13.000   1.5786   0.06835   0.06034  -0.0801  0.1857  1.0000  -3.8347   0.0000   0.0000   0.0000   0.2799
  13.500   1.5528   0.07605   0.06837  -0.0773  0.1798  1.0000  -3.8759   0.0000   0.0000   0.0000   0.2779
  14.000   1.1696   0.14939   0.14247  -0.1153  0.1734  1.0000  -2.3716   0.0000   0.0000   0.0000   0.3278
  16.000   1.1512   0.19329   0.18660  -0.1395  0.1460  1.0000  -2.1753   0.0000   0.0000   0.0000   0.3478
  16.500   1.1707   0.19845   0.19189  -0.1413  0.1379  1.0000  -2.2960   0.0000   0.0000   0.0000   0.3462
  17.000   1.1623   0.21041   0.20391  -0.1499  0.1345  1.0000  -2.1912   0.0000   0.0000   0.0000   0.3540
  17.500   1.1666   0.22008   0.21365  -0.1562  0.1347  1.0000  -2.1578   0.0000   0.0000   0.0000   0.3581
  18.000   1.1842   0.22872   0.22237  -0.1597  0.1384  1.0000  -2.2034   0.0000   0.0000   0.0000   0.3582
  19.500   1.2255   0.24771   0.24157  -0.1714  0.1177  1.0000  -2.3398   0.0000   0.0000   0.0000   0.3599
  20.000   1.2236   0.25601   0.24993  -0.1800  0.1141  1.0000  -2.2129   0.0000   0.0000   0.0000   0.3664


