xflr5 v6.61

 Calculated polar for: E63_12_00

 1 1 Reynolds number fixed          Mach number fixed         

 xtrf =   1.000 (top)        1.000 (bottom)
 Mach =   0.200     Re =     0.125 e 6     Ncrit =   7.000

  alpha     CL        CD       CDp       Cm    Top Xtr Bot Xtr   Cpmin    Chinge    XCp    
 ------- -------- --------- --------- -------- ------- ------- -------- --------- ---------
 -24.000  -0.6491   0.28630   0.28054   0.0201  1.0000  0.0287  -1.6005   0.0000   0.0000   0.0000   0.2516
 -23.500  -0.6323   0.27938   0.27363   0.0179  1.0000  0.0292  -1.5267   0.0000   0.0000   0.0000   0.2496
 -23.000  -0.6164   0.27397   0.26823   0.0152  1.0000  0.0299  -1.4758   0.0000   0.0000   0.0000   0.2466
 -22.500  -0.6008   0.26881   0.26308   0.0123  1.0000  0.0307  -1.4360   0.0000   0.0000   0.0000   0.2431
 -22.000  -0.5852   0.26366   0.25794   0.0094  1.0000  0.0315  -1.4026   0.0000   0.0000   0.0000   0.2394
 -21.500  -0.5698   0.25841   0.25271   0.0066  1.0000  0.0326  -1.3737   0.0000   0.0000   0.0000   0.2354
 -21.000  -0.5544   0.25316   0.24745   0.0037  1.0000  0.0338  -1.3512   0.0000   0.0000   0.0000   0.2311
 -20.500  -0.5392   0.24781   0.24212   0.0009  1.0000  0.0352  -1.3661   0.0000   0.0000   0.0000   0.2265
 -20.000  -0.5246   0.24266   0.23699  -0.0023  1.0000  0.0365  -1.4088   0.0000   0.0000   0.0000   0.2210
 -19.500  -0.5125   0.23854   0.23289  -0.0060  1.0000  0.0371  -1.4890   0.0000   0.0000   0.0000   0.2141
 -19.000  -0.5043   0.23574   0.23013  -0.0099  1.0000  0.0373  -1.5890   0.0000   0.0000   0.0000   0.2067
 -18.500  -0.4839   0.22636   0.22079  -0.0106  1.0000  0.0379  -1.5173   0.0000   0.0000   0.0000   0.2046
 -18.000  -0.4665   0.22010   0.21455  -0.0117  1.0000  0.0388  -1.4477   0.0000   0.0000   0.0000   0.2020
 -17.500  -0.4511   0.21469   0.20916  -0.0133  1.0000  0.0400  -1.4141   0.0000   0.0000   0.0000   0.1979
 -17.000  -0.4366   0.20929   0.20378  -0.0151  1.0000  0.0415  -1.3970   0.0000   0.0000   0.0000   0.1932
 -16.500  -0.4229   0.20383   0.19837  -0.0169  1.0000  0.0432  -1.3939   0.0000   0.0000   0.0000   0.1880
 -16.000  -0.4118   0.19870   0.19327  -0.0194  1.0000  0.0452  -1.4347   0.0000   0.0000   0.0000   0.1813
 -15.500  -0.4068   0.19489   0.18952  -0.0227  1.0000  0.0459  -1.5271   0.0000   0.0000   0.0000   0.1732
 -15.000  -0.4043   0.19114   0.18583  -0.0256  1.0000  0.0461  -1.6106   0.0000   0.0000   0.0000   0.1665
 -14.500  -0.3784   0.18115   0.17589  -0.0242  1.0000  0.0470  -1.4636   0.0000   0.0000   0.0000   0.1657
 -14.000  -0.3633   0.17547   0.17025  -0.0242  1.0000  0.0485  -1.3900   0.0000   0.0000   0.0000   0.1632
 -13.500  -0.3515   0.17011   0.16492  -0.0248  1.0000  0.0506  -1.3559   0.0000   0.0000   0.0000   0.1596
 -13.000  -0.3424   0.16470   0.15956  -0.0258  1.0000  0.0536  -1.3724   0.0000   0.0000   0.0000   0.1552
 -12.500  -0.3510   0.16125   0.15619  -0.0296  1.0000  0.0557  -1.5635   0.0000   0.0000   0.0000   0.1476
 -12.000  -0.3302   0.15330   0.14830  -0.0278  1.0000  0.0573  -1.4659   0.0000   0.0000   0.0000   0.1476
 -11.500  -0.3186   0.14802   0.14308  -0.0271  1.0000  0.0593  -1.4242   0.0000   0.0000   0.0000   0.1470
 -11.000  -0.3118   0.14276   0.13789  -0.0271  1.0000  0.0615  -1.4293   0.0000   0.0000   0.0000   0.1459
 -10.500  -0.3104   0.13757   0.13278  -0.0276  1.0000  0.0643  -1.4786   0.0000   0.0000   0.0000   0.1446
 -10.000  -0.3207   0.13291   0.12821  -0.0292  1.0000  0.0655  -1.6066   0.0000   0.0000   0.0000   0.1439
  -9.500  -0.3288   0.12773   0.12313  -0.0297  1.0000  0.0657  -1.6978   0.0000   0.0000   0.0000   0.1458
  -8.500  -0.3345   0.11052   0.10603  -0.0280  1.0000  0.0454  -1.9747   0.0000   0.0000   0.0000   0.1533
  -8.000  -0.3382   0.10549   0.10110  -0.0258  1.0000  0.0443  -1.9854   0.0000   0.0000   0.0000   0.1616
  -7.500  -0.3524   0.10002   0.09575  -0.0239  1.0000  0.0434  -2.0746   0.0000   0.0000   0.0000   0.1711
  -7.000  -0.3766   0.09458   0.09045  -0.0215  1.0000  0.0429  -2.2069   0.0000   0.0000   0.0000   0.1831
  -6.500  -0.3711   0.08251   0.07839  -0.0346  0.9877  0.0436  -2.4963   0.0000   0.0000   0.0000   0.1468
  -6.000  -0.3133   0.03388   0.02798  -0.1074  0.9744  0.0500  -3.8701   0.0000   0.0000   0.0000  -0.1071
  -5.500  -0.2245   0.02815   0.02097  -0.1184  0.9687  0.0556  -3.6175   0.0000   0.0000   0.0000  -0.2956
  -5.000  -0.1467   0.02651   0.01906  -0.1234  0.9597  0.0608  -3.2198   0.0000   0.0000   0.0000  -0.6163
  -4.500  -0.0694   0.02525   0.01749  -0.1279  0.9498  0.0690  -2.8283   0.0000   0.0000   0.0000  -1.6383
  -4.000   0.0070   0.02414   0.01618  -0.1318  0.9393  0.0786  -2.4505   0.0000   0.0000   0.0000  19.4430
  -3.500   0.0812   0.02356   0.01542  -0.1350  0.9265  0.0979  -2.0717   0.0000   0.0000   0.0000   1.9413
  -3.000   0.1578   0.02275   0.01460  -0.1385  0.9138  0.1197  -1.7892   0.0000   0.0000   0.0000   1.1399
  -2.500   0.2352   0.02190   0.01377  -0.1418  0.9014  0.1438  -1.5583   0.0000   0.0000   0.0000   0.8592
  -2.000   0.3144   0.02104   0.01289  -0.1452  0.8891  0.1747  -1.3239   0.0000   0.0000   0.0000   0.7152
  -1.500   0.3839   0.02011   0.01204  -0.1466  0.8718  0.2027  -1.1232   0.0000   0.0000   0.0000   0.6334
  -1.000   0.4620   0.01887   0.01088  -0.1493  0.8584  0.2372  -0.9357   0.0000   0.0000   0.0000   0.5733
  -0.500   0.5351   0.01776   0.00994  -0.1510  0.8400  0.2765  -0.8121   0.0000   0.0000   0.0000   0.5314
   0.000   0.6129   0.01661   0.00898  -0.1536  0.8185  0.3318  -0.8975   0.0000   0.0000   0.0000   0.4988
   0.500   0.6992   0.01549   0.00808  -0.1578  0.7925  0.4090  -0.9941   0.0000   0.0000   0.0000   0.4732
   1.000   0.7794   0.01480   0.00768  -0.1610  0.7552  0.5258  -1.0925   0.0000   0.0000   0.0000   0.4534
   1.500   0.8496   0.01431   0.00750  -0.1619  0.7109  0.7025  -1.1932   0.0000   0.0000   0.0000   0.4368
   2.000   0.9003   0.01397   0.00722  -0.1587  0.6629  1.0000  -1.2854   0.0000   0.0000   0.0000   0.4219
   2.500   0.9569   0.01453   0.00732  -0.1578  0.6114  1.0000  -1.3838   0.0000   0.0000   0.0000   0.4098
   3.000   1.0082   0.01523   0.00761  -0.1559  0.5626  1.0000  -1.4787   0.0000   0.0000   0.0000   0.3989
   3.500   1.0553   0.01602   0.00805  -0.1534  0.5171  1.0000  -1.5774   0.0000   0.0000   0.0000   0.3889
   4.000   1.1006   0.01689   0.00861  -0.1506  0.4756  1.0000  -1.6825   0.0000   0.0000   0.0000   0.3797
   4.500   1.1441   0.01780   0.00926  -0.1475  0.4370  1.0000  -1.7868   0.0000   0.0000   0.0000   0.3712
   5.000   1.1864   0.01878   0.01000  -0.1443  0.4026  1.0000  -1.8953   0.0000   0.0000   0.0000   0.3632
   5.500   1.2270   0.01979   0.01085  -0.1409  0.3715  1.0000  -2.0072   0.0000   0.0000   0.0000   0.3557
   6.000   1.2673   0.02088   0.01176  -0.1375  0.3449  1.0000  -2.1255   0.0000   0.0000   0.0000   0.3487
   6.500   1.3074   0.02204   0.01280  -0.1341  0.3208  1.0000  -2.2488   0.0000   0.0000   0.0000   0.3421
   7.000   1.3461   0.02326   0.01392  -0.1306  0.2986  1.0000  -2.3716   0.0000   0.0000   0.0000   0.3358
   7.500   1.3835   0.02456   0.01521  -0.1270  0.2789  1.0000  -2.4944   0.0000   0.0000   0.0000   0.3298
   8.000   1.4197   0.02593   0.01659  -0.1233  0.2604  1.0000  -2.6414   0.0000   0.0000   0.0000   0.3241
   8.500   1.4557   0.02744   0.01805  -0.1197  0.2449  1.0000  -2.8094   0.0000   0.0000   0.0000   0.3187
   9.000   1.4890   0.02903   0.01971  -0.1158  0.2298  1.0000  -2.9741   0.0000   0.0000   0.0000   0.3135
   9.500   1.5212   0.03075   0.02147  -0.1119  0.2166  1.0000  -3.1394   0.0000   0.0000   0.0000   0.3084
  10.000   1.5478   0.03257   0.02336  -0.1074  0.2035  1.0000  -3.2979   0.0000   0.0000   0.0000   0.3034
  10.500   1.5683   0.03457   0.02551  -0.1024  0.1904  1.0000  -3.4449   0.0000   0.0000   0.0000   0.2985
  11.000   1.5871   0.03683   0.02791  -0.0977  0.1787  1.0000  -3.5890   0.0000   0.0000   0.0000   0.2938
  11.500   1.6047   0.03936   0.03059  -0.0932  0.1685  1.0000  -3.7307   0.0000   0.0000   0.0000   0.2894
  12.000   1.6203   0.04219   0.03357  -0.0890  0.1595  1.0000  -3.8689   0.0000   0.0000   0.0000   0.2853
  12.500   1.6312   0.04548   0.03709  -0.0850  0.1506  1.0000  -4.0491   0.0000   0.0000   0.0000   0.2815
  13.000   1.6384   0.04935   0.04125  -0.0815  0.1423  1.0000  -4.2287   0.0000   0.0000   0.0000   0.2781
  13.500   1.6423   0.05376   0.04591  -0.0786  0.1349  1.0000  -4.3984   0.0000   0.0000   0.0000   0.2751
  14.000   1.6458   0.05851   0.05081  -0.0763  0.1286  1.0000  -4.5681   0.0000   0.0000   0.0000   0.2726
  14.500   1.6426   0.06455   0.05729  -0.0749  0.1225  1.0000  -4.7033   0.0000   0.0000   0.0000   0.2707
  15.000   1.6428   0.07041   0.06328  -0.0741  0.1176  1.0000  -4.8561   0.0000   0.0000   0.0000   0.2691
  15.500   1.6285   0.07874   0.07209  -0.0749  0.1124  1.0000  -4.9358   0.0000   0.0000   0.0000   0.2688
  16.000   1.6228   0.08611   0.07963  -0.0760  0.1079  1.0000  -5.0550   0.0000   0.0000   0.0000   0.2685
  16.500   1.5965   0.09727   0.09126  -0.0796  0.1037  1.0000  -5.0624   0.0000   0.0000   0.0000   0.2704
  17.000   1.5758   0.10799   0.10228  -0.0840  0.0994  1.0000  -5.0872   0.0000   0.0000   0.0000   0.2726
  17.500   1.5534   0.11945   0.11401  -0.0895  0.0958  1.0000  -5.0903   0.0000   0.0000   0.0000   0.2758
  18.000   1.3492   0.17182   0.16714  -0.1263  0.0891  1.0000  -3.8714   0.0000   0.0000   0.0000   0.3125
  18.500   1.4239   0.16226   0.15760  -0.1181  0.0874  1.0000  -4.4664   0.0000   0.0000   0.0000   0.2996
  19.000   1.3100   0.20085   0.19628  -0.1459  0.0768  1.0000  -3.5532   0.0000   0.0000   0.0000   0.3290
  20.000   1.2981   0.22474   0.22026  -0.1624  0.0663  1.0000  -3.3438   0.0000   0.0000   0.0000   0.3413


