xflr5 v6.61

 Calculated polar for: E63_10_00

 1 1 Reynolds number fixed          Mach number fixed         

 xtrf =   1.000 (top)        1.000 (bottom)
 Mach =   0.200     Re =     0.070 e 6     Ncrit =   7.000

  alpha     CL        CD       CDp       Cm    Top Xtr Bot Xtr   Cpmin    Chinge    XCp    
 ------- -------- --------- --------- -------- ------- ------- -------- --------- ---------
 -23.000  -0.6460   0.27860   0.27111   0.0183  1.0000  0.0380  -1.4543   0.0000   0.0000   0.0000   0.2564
 -22.500  -0.6299   0.27222   0.26474   0.0158  1.0000  0.0390  -1.4143   0.0000   0.0000   0.0000   0.2537
 -22.000  -0.6143   0.26681   0.25933   0.0130  1.0000  0.0402  -1.3946   0.0000   0.0000   0.0000   0.2503
 -21.500  -0.5988   0.26153   0.25407   0.0100  1.0000  0.0415  -1.3833   0.0000   0.0000   0.0000   0.2465
 -21.000  -0.5835   0.25631   0.24883   0.0070  1.0000  0.0430  -1.3776   0.0000   0.0000   0.0000   0.2423
 -20.500  -0.5684   0.25128   0.24381   0.0040  1.0000  0.0444  -1.3809   0.0000   0.0000   0.0000   0.2377
 -20.000  -0.5546   0.24717   0.23973   0.0005  1.0000  0.0455  -1.4057   0.0000   0.0000   0.0000   0.2322
 -19.500  -0.5433   0.24458   0.23718  -0.0033  1.0000  0.0459  -1.4490   0.0000   0.0000   0.0000   0.2258
 -19.000  -0.5301   0.23946   0.23212  -0.0062  1.0000  0.0463  -1.4563   0.0000   0.0000   0.0000   0.2207
 -18.500  -0.5094   0.22962   0.22229  -0.0067  1.0000  0.0475  -1.3526   0.0000   0.0000   0.0000   0.2193
 -18.000  -0.4934   0.22380   0.21649  -0.0085  1.0000  0.0495  -1.3020   0.0000   0.0000   0.0000   0.2156
 -17.500  -0.4786   0.21844   0.21113  -0.0106  1.0000  0.0521  -1.2734   0.0000   0.0000   0.0000   0.2111
 -17.000  -0.4656   0.21370   0.20644  -0.0132  1.0000  0.0547  -1.2992   0.0000   0.0000   0.0000   0.2053
 -16.500  -0.4575   0.21101   0.20381  -0.0166  1.0000  0.0556  -1.3814   0.0000   0.0000   0.0000   0.1979
 -16.000  -0.4433   0.20424   0.19711  -0.0183  1.0000  0.0563  -1.3900   0.0000   0.0000   0.0000   0.1933
 -15.500  -0.4246   0.19643   0.18932  -0.0185  1.0000  0.0582  -1.3251   0.0000   0.0000   0.0000   0.1911
 -15.000  -0.4106   0.19080   0.18374  -0.0197  1.0000  0.0606  -1.3140   0.0000   0.0000   0.0000   0.1869
 -14.500  -0.3986   0.18551   0.17851  -0.0213  1.0000  0.0634  -1.3281   0.0000   0.0000   0.0000   0.1818
 -14.000  -0.3920   0.18164   0.17471  -0.0238  1.0000  0.0654  -1.3939   0.0000   0.0000   0.0000   0.1751
 -13.500  -0.3876   0.17761   0.17075  -0.0260  1.0000  0.0660  -1.4595   0.0000   0.0000   0.0000   0.1694
 -13.000  -0.3656   0.16873   0.16190  -0.0249  1.0000  0.0684  -1.3597   0.0000   0.0000   0.0000   0.1682
 -12.500  -0.3543   0.16322   0.15645  -0.0254  1.0000  0.0715  -1.3464   0.0000   0.0000   0.0000   0.1648
 -12.000  -0.3493   0.15880   0.15211  -0.0270  1.0000  0.0748  -1.3891   0.0000   0.0000   0.0000   0.1599
 -11.500  -0.3567   0.15674   0.15018  -0.0295  1.0000  0.0757  -1.5023   0.0000   0.0000   0.0000   0.1554
 -11.000  -0.3295   0.14689   0.14037  -0.0271  1.0000  0.0794  -1.3610   0.0000   0.0000   0.0000   0.1555
 -10.500  -0.3261   0.14252   0.13611  -0.0277  1.0000  0.0852  -1.3808   0.0000   0.0000   0.0000   0.1534
 -10.000  -0.3239   0.13732   0.13103  -0.0280  1.0000  0.0876  -1.4066   0.0000   0.0000   0.0000   0.1524
  -9.500  -0.3117   0.13141   0.12520  -0.0266  1.0000  0.0922  -1.3475   0.0000   0.0000   0.0000   0.1539
  -8.500  -0.2601   0.11992   0.11437  -0.0240  1.0000  0.1011  -1.1948   0.0000   0.0000   0.0000   0.1504
  -8.000  -0.2652   0.11552   0.11009  -0.0227  1.0000  0.1056  -1.2300   0.0000   0.0000   0.0000   0.1577
  -7.500  -0.2925   0.11299   0.10775  -0.0224  1.0000  0.1077  -1.3540   0.0000   0.0000   0.0000   0.1679
  -7.000  -0.2782   0.10606   0.10091  -0.0188  1.0000  0.1105  -1.2907   0.0000   0.0000   0.0000   0.1768
  -6.500  -0.2854   0.10179   0.09678  -0.0161  1.0000  0.1142  -1.3030   0.0000   0.0000   0.0000   0.1889
  -6.000  -0.3148   0.09905   0.09422  -0.0132  1.0000  0.1177  -1.3863   0.0000   0.0000   0.0000   0.2042
  -5.500  -0.3463   0.09577   0.09111  -0.0141  1.0000  0.1187  -1.5143   0.0000   0.0000   0.0000   0.2061
  -4.000  -0.3013   0.06430   0.05909  -0.0464  1.0000  0.0645  -2.2159   0.0000   0.0000   0.0000   0.0907
  -3.500  -0.1483   0.03919   0.03238  -0.0908  1.0000  0.0676  -2.6433   0.0000   0.0000   0.0000  -0.3733
  -3.000  -0.0412   0.03274   0.02444  -0.1054  0.9963  0.0858  -2.4755   0.0000   0.0000   0.0000  -2.3491
  -2.500   0.0460   0.03276   0.02426  -0.1129  0.9828  0.1161  -2.0792   0.0000   0.0000   0.0000   2.7318
  -2.000   0.1402   0.03063   0.02152  -0.1209  0.9710  0.1349  -1.7784   0.0000   0.0000   0.0000   1.1199
  -1.500   0.2253   0.02965   0.02028  -0.1267  0.9547  0.1715  -1.4474   0.0000   0.0000   0.0000   0.8159
  -1.000   0.3088   0.02905   0.01973  -0.1321  0.9369  0.2272  -1.1071   0.0000   0.0000   0.0000   0.6789
  -0.500   0.3937   0.02836   0.01917  -0.1372  0.9186  0.2943  -0.8769   0.0000   0.0000   0.0000   0.5985
   0.000   0.4773   0.02753   0.01858  -0.1416  0.8984  0.3819  -0.6924   0.0000   0.0000   0.0000   0.5457
   0.500   0.5555   0.02647   0.01804  -0.1445  0.8760  0.5199  -0.7683   0.0000   0.0000   0.0000   0.5085
   1.000   0.6081   0.02446   0.01709  -0.1409  0.8507  1.0000  -0.8361   0.0000   0.0000   0.0000   0.4793
   1.500   0.6950   0.02358   0.01574  -0.1447  0.8270  1.0000  -0.9363   0.0000   0.0000   0.0000   0.4552
   2.000   0.7778   0.02248   0.01440  -0.1471  0.8002  1.0000  -1.0459   0.0000   0.0000   0.0000   0.4356
   2.500   0.8643   0.02130   0.01306  -0.1500  0.7696  1.0000  -1.1674   0.0000   0.0000   0.0000   0.4194
   3.000   0.9485   0.02049   0.01208  -0.1526  0.7282  1.0000  -1.2976   0.0000   0.0000   0.0000   0.4062
   3.500   1.0248   0.02024   0.01160  -0.1541  0.6753  1.0000  -1.4311   0.0000   0.0000   0.0000   0.3951
   4.000   1.0916   0.02057   0.01164  -0.1542  0.6166  1.0000  -1.5620   0.0000   0.0000   0.0000   0.3854
   4.500   1.1471   0.02139   0.01214  -0.1527  0.5579  1.0000  -1.6866   0.0000   0.0000   0.0000   0.3766
   5.000   1.1971   0.02250   0.01293  -0.1504  0.5033  1.0000  -1.8158   0.0000   0.0000   0.0000   0.3684
   5.500   1.2441   0.02380   0.01399  -0.1479  0.4544  1.0000  -1.9430   0.0000   0.0000   0.0000   0.3610
   6.000   1.2888   0.02527   0.01522  -0.1451  0.4111  1.0000  -2.0893   0.0000   0.0000   0.0000   0.3540
   6.500   1.3319   0.02687   0.01668  -0.1422  0.3728  1.0000  -2.2603   0.0000   0.0000   0.0000   0.3475
   7.000   1.3744   0.02859   0.01829  -0.1393  0.3393  1.0000  -2.4333   0.0000   0.0000   0.0000   0.3414
   7.500   1.4170   0.03045   0.02017  -0.1365  0.3103  1.0000  -2.6094   0.0000   0.0000   0.0000   0.3356
   8.000   1.4565   0.03246   0.02225  -0.1333  0.2840  1.0000  -2.7799   0.0000   0.0000   0.0000   0.3301
   8.500   1.4952   0.03462   0.02446  -0.1301  0.2611  1.0000  -2.9513   0.0000   0.0000   0.0000   0.3248
   9.000   1.5319   0.03698   0.02695  -0.1267  0.2408  1.0000  -3.2156   0.0000   0.0000   0.0000   0.3197
   9.500   1.5693   0.03953   0.02968  -0.1236  0.2232  1.0000  -3.4897   0.0000   0.0000   0.0000   0.3150
  10.000   1.5964   0.04236   0.03282  -0.1191  0.2068  1.0000  -3.7340   0.0000   0.0000   0.0000   0.3100
  10.500   1.6169   0.04488   0.03548  -0.1137  0.1911  1.0000  -3.9718   0.0000   0.0000   0.0000   0.3049
  11.000   1.6188   0.04780   0.03876  -0.1062  0.1764  1.0000  -4.1479   0.0000   0.0000   0.0000   0.2994
  11.500   1.6200   0.05076   0.04194  -0.0995  0.1627  1.0000  -4.3371   0.0000   0.0000   0.0000   0.2943
  12.000   1.6188   0.05427   0.04573  -0.0936  0.1506  1.0000  -4.5338   0.0000   0.0000   0.0000   0.2897
  12.500   1.6108   0.05892   0.05075  -0.0883  0.1403  1.0000  -4.6921   0.0000   0.0000   0.0000   0.2858
  13.000   1.5956   0.06529   0.05764  -0.0842  0.1323  1.0000  -4.7991   0.0000   0.0000   0.0000   0.2829
  13.500   1.5816   0.07229   0.06505  -0.0817  0.1256  1.0000  -4.9045   0.0000   0.0000   0.0000   0.2808
  14.000   1.5574   0.08101   0.07421  -0.0809  0.1198  1.0000  -4.9487   0.0000   0.0000   0.0000   0.2801
  14.500   1.5154   0.09317   0.08686  -0.0833  0.1159  1.0000  -4.8774   0.0000   0.0000   0.0000   0.2821
  15.000   1.4021   0.12063   0.11492  -0.0986  0.1160  1.0000  -4.3203   0.0000   0.0000   0.0000   0.2969
  15.500   1.2072   0.18524   0.17941  -0.1432  0.1221  1.0000  -2.6792   0.0000   0.0000   0.0000   0.3470
  16.000   1.2123   0.19427   0.18849  -0.1484  0.1147  1.0000  -2.6991   0.0000   0.0000   0.0000   0.3499
  16.500   1.2206   0.20127   0.19555  -0.1529  0.1026  1.0000  -2.7634   0.0000   0.0000   0.0000   0.3518
  17.000   1.2303   0.20858   0.20294  -0.1574  0.0940  1.0000  -2.8144   0.0000   0.0000   0.0000   0.3535
  17.500   1.2401   0.21689   0.21134  -0.1623  0.0883  1.0000  -2.8228   0.0000   0.0000   0.0000   0.3556
  18.000   1.2411   0.22768   0.22215  -0.1701  0.0813  1.0000  -2.6997   0.0000   0.0000   0.0000   0.3610
  18.500   1.2554   0.23479   0.22931  -0.1740  0.0754  1.0000  -2.7167   0.0000   0.0000   0.0000   0.3615
  19.000   1.2563   0.24665   0.24116  -0.1828  0.0729  1.0000  -2.4980   0.0000   0.0000   0.0000   0.3678
  19.500   1.2652   0.25644   0.25096  -0.1894  0.0732  1.0000  -2.3724   0.0000   0.0000   0.0000   0.3712


