xflr5 v6.61

 Calculated polar for: E63_8_00

 1 1 Reynolds number fixed          Mach number fixed         

 xtrf =   1.000 (top)        1.000 (bottom)
 Mach =   0.200     Re =     0.025 e 6     Ncrit =   7.000

  alpha     CL        CD       CDp       Cm    Top Xtr Bot Xtr   Cpmin    Chinge    XCp    
 ------- -------- --------- --------- -------- ------- ------- -------- --------- ---------
 -26.500  -0.7837   0.31971   0.30767   0.0494  1.0000  0.0675  -1.5408   0.0000   0.0000   0.0000   0.2921
 -26.000  -0.7690   0.31380   0.30173   0.0458  1.0000  0.0703  -1.5084   0.0000   0.0000   0.0000   0.2894
 -25.500  -0.7547   0.30938   0.29730   0.0419  1.0000  0.0732  -1.4892   0.0000   0.0000   0.0000   0.2860
 -25.000  -0.7414   0.30682   0.29474   0.0376  1.0000  0.0751  -1.4841   0.0000   0.0000   0.0000   0.2820
 -24.500  -0.7288   0.30497   0.29293   0.0333  1.0000  0.0759  -1.4811   0.0000   0.0000   0.0000   0.2778
 -24.000  -0.7110   0.29444   0.28236   0.0308  1.0000  0.0784  -1.4208   0.0000   0.0000   0.0000   0.2758
 -23.500  -0.6957   0.28884   0.27671   0.0275  1.0000  0.0813  -1.4040   0.0000   0.0000   0.0000   0.2726
 -23.000  -0.6811   0.28444   0.27231   0.0239  1.0000  0.0842  -1.3995   0.0000   0.0000   0.0000   0.2688
 -22.500  -0.6680   0.28198   0.26987   0.0200  1.0000  0.0860  -1.4104   0.0000   0.0000   0.0000   0.2642
 -22.000  -0.6525   0.27570   0.26363   0.0168  1.0000  0.0875  -1.3930   0.0000   0.0000   0.0000   0.2607
 -21.500  -0.6355   0.26842   0.25635   0.0143  1.0000  0.0909  -1.3532   0.0000   0.0000   0.0000   0.2578
 -21.000  -0.6207   0.26376   0.25171   0.0112  1.0000  0.0946  -1.3362   0.0000   0.0000   0.0000   0.2537
 -20.500  -0.6090   0.26208   0.25001   0.0074  1.0000  0.0969  -1.3437   0.0000   0.0000   0.0000   0.2486
 -20.000  -0.5906   0.25309   0.24106   0.0054  1.0000  0.1003  -1.2909   0.0000   0.0000   0.0000   0.2458
 -19.500  -0.5756   0.24808   0.23608   0.0027  1.0000  0.1051  -1.2887   0.0000   0.0000   0.0000   0.2417
 -19.000  -0.5650   0.24648   0.23454  -0.0008  1.0000  0.1076  -1.3201   0.0000   0.0000   0.0000   0.2363
 -18.500  -0.5457   0.23722   0.22532  -0.0024  1.0000  0.1115  -1.2854   0.0000   0.0000   0.0000   0.2334
 -18.000  -0.5315   0.23242   0.22055  -0.0049  1.0000  0.1164  -1.2835   0.0000   0.0000   0.0000   0.2290
 -17.500  -0.5226   0.23083   0.21902  -0.0080  1.0000  0.1187  -1.3140   0.0000   0.0000   0.0000   0.2235
 -17.000  -0.5019   0.22112   0.20932  -0.0091  1.0000  0.1240  -1.2674   0.0000   0.0000   0.0000   0.2206
 -16.500  -0.4909   0.21767   0.20593  -0.0116  1.0000  0.1287  -1.2767   0.0000   0.0000   0.0000   0.2156
 -16.000  -0.4749   0.21074   0.19908  -0.0132  1.0000  0.1326  -1.2554   0.0000   0.0000   0.0000   0.2118
 -15.500  -0.4625   0.20606   0.19447  -0.0150  1.0000  0.1387  -1.2477   0.0000   0.0000   0.0000   0.2074
 -15.000  -0.4490   0.20020   0.18871  -0.0165  1.0000  0.1428  -1.2342   0.0000   0.0000   0.0000   0.2032
 -14.500  -0.4372   0.19539   0.18397  -0.0180  1.0000  0.1498  -1.2223   0.0000   0.0000   0.0000   0.1991
 -14.000  -0.4228   0.18894   0.17761  -0.0190  1.0000  0.1559  -1.1964   0.0000   0.0000   0.0000   0.1954
 -13.500  -0.4175   0.18599   0.17474  -0.0207  1.0000  0.1626  -1.2064   0.0000   0.0000   0.0000   0.1914
 -13.000  -0.4042   0.17979   0.16862  -0.0213  1.0000  0.1724  -1.2032   0.0000   0.0000   0.0000   0.1884
 -12.500  -0.3905   0.17328   0.16220  -0.0217  1.0000  0.1818  -1.1992   0.0000   0.0000   0.0000   0.1855
 -12.000  -0.3790   0.16741   0.15645  -0.0222  1.0000  0.1904  -1.2032   0.0000   0.0000   0.0000   0.1828
 -11.500  -0.3700   0.16212   0.15129  -0.0226  1.0000  0.1989  -1.2143   0.0000   0.0000   0.0000   0.1805
 -11.000  -0.3636   0.15740   0.14672  -0.0229  1.0000  0.2078  -1.2307   0.0000   0.0000   0.0000   0.1789
 -10.500  -0.3580   0.15274   0.14221  -0.0229  1.0000  0.2178  -1.2454   0.0000   0.0000   0.0000   0.1781
 -10.000  -0.3500   0.14727   0.13688  -0.0226  1.0000  0.2289  -1.2506   0.0000   0.0000   0.0000   0.1779
  -9.500  -0.3402   0.14128   0.13103  -0.0219  1.0000  0.2411  -1.2483   0.0000   0.0000   0.0000   0.1783
  -9.000  -0.3315   0.13559   0.12542  -0.0209  1.0000  0.2548  -1.2458   0.0000   0.0000   0.0000   0.1798
  -8.500  -0.3285   0.13098   0.12099  -0.0197  1.0000  0.2696  -1.2536   0.0000   0.0000   0.0000   0.1833
  -8.000  -0.3284   0.12662   0.11685  -0.0181  1.0000  0.2837  -1.2651   0.0000   0.0000   0.0000   0.1885
  -7.500  -0.3216   0.12108   0.11149  -0.0160  1.0000  0.3025  -1.2559   0.0000   0.0000   0.0000   0.1943
  -7.000  -0.3179   0.11590   0.10651  -0.0135  1.0000  0.3211  -1.2505   0.0000   0.0000   0.0000   0.2020
  -6.500  -0.3186   0.11132   0.10217  -0.0103  1.0000  0.3421  -1.2486   0.0000   0.0000   0.0000   0.2125
  -6.000  -0.3210   0.10690   0.09798  -0.0064  1.0000  0.3666  -1.2441   0.0000   0.0000   0.0000   0.2254
  -5.000  -0.3251   0.09764   0.08919   0.0031  1.0000  0.4319  -1.2202   0.0000   0.0000   0.0000   0.2556
  -4.000  -0.2415   0.07914   0.07075   0.0152  1.0000  0.7160  -1.0784   0.0000   0.0000   0.0000   0.3082
  -3.000  -0.2410   0.07213   0.06375  -0.0372  1.0000  0.2286  -1.5054   0.0000   0.0000   0.0000   0.0923
  -2.500  -0.1431   0.06047   0.05147  -0.0608  1.0000  0.1824  -1.6267   0.0000   0.0000   0.0000  -0.1801
  -2.000  -0.0478   0.05202   0.04243  -0.0775  1.0000  0.1985  -1.6295   0.0000   0.0000   0.0000  -1.3861
  -1.500   0.0666   0.04427   0.03357  -0.0953  1.0000  0.2250  -1.6020   0.0000   0.0000   0.0000   1.6893
  -1.000   0.1616   0.04004   0.02814  -0.1056  1.0000  0.2719  -1.4292   0.0000   0.0000   0.0000   0.9056
  -0.500   0.2276   0.03811   0.02579  -0.1085  1.0000  0.3451  -1.2447   0.0000   0.0000   0.0000   0.7275
   0.000   0.2872   0.03676   0.02445  -0.1097  1.0000  0.4645  -1.0484   0.0000   0.0000   0.0000   0.6317
   0.500   0.3290   0.03499   0.02371  -0.1061  1.0000  0.7036  -0.8703   0.0000   0.0000   0.0000   0.5715
   1.000   0.3736   0.03535   0.02321  -0.1078  1.0000  1.0000  -0.6923   0.0000   0.0000   0.0000   0.5369
   1.500   0.4184   0.03755   0.02465  -0.1091  1.0000  1.0000  -0.6082   0.0000   0.0000   0.0000   0.5083
   2.000   0.4572   0.04011   0.02677  -0.1098  1.0000  1.0000  -0.6498   0.0000   0.0000   0.0000   0.4873
   2.500   0.4919   0.04309   0.02949  -0.1105  1.0000  1.0000  -0.6893   0.0000   0.0000   0.0000   0.4713
   3.000   0.5576   0.04720   0.03343  -0.1175  0.9762  1.0000  -0.7577   0.0000   0.0000   0.0000   0.4568
   3.500   0.6526   0.05078   0.03693  -0.1280  0.9228  1.0000  -0.8639   0.0000   0.0000   0.0000   0.4419
   4.000   0.7434   0.05345   0.03967  -0.1360  0.8684  1.0000  -0.9782   0.0000   0.0000   0.0000   0.4282
   4.500   0.8240   0.05545   0.04185  -0.1408  0.8120  1.0000  -1.0964   0.0000   0.0000   0.0000   0.4156
   5.000   0.8987   0.05704   0.04374  -0.1432  0.7553  1.0000  -1.2200   0.0000   0.0000   0.0000   0.4036
   5.500   0.9733   0.05802   0.04506  -0.1439  0.6991  1.0000  -1.3595   0.0000   0.0000   0.0000   0.3916
   6.000   1.0508   0.05804   0.04554  -0.1429  0.6434  1.0000  -1.5404   0.0000   0.0000   0.0000   0.3792
   6.500   1.1370   0.05711   0.04516  -0.1411  0.5867  1.0000  -1.7755   0.0000   0.0000   0.0000   0.3667
   7.000   1.2139   0.05715   0.04555  -0.1386  0.5289  1.0000  -1.9967   0.0000   0.0000   0.0000   0.3561
   7.500   1.2761   0.05870   0.04736  -0.1353  0.4749  1.0000  -2.2786   0.0000   0.0000   0.0000   0.3472
   8.000   1.3088   0.06297   0.05192  -0.1311  0.4305  1.0000  -2.4997   0.0000   0.0000   0.0000   0.3408
   8.500   1.3141   0.06969   0.05916  -0.1264  0.3967  1.0000  -2.6208   0.0000   0.0000   0.0000   0.3362
   9.000   1.2838   0.07963   0.06935  -0.1219  0.3738  1.0000  -2.6040   0.0000   0.0000   0.0000   0.3344
   9.500   1.2188   0.09526   0.08485  -0.1224  0.3603  1.0000  -2.4229   0.0000   0.0000   0.0000   0.3395
  10.000   1.1922   0.10847   0.09816  -0.1247  0.3426  1.0000  -2.3674   0.0000   0.0000   0.0000   0.3431
  10.500   1.1594   0.12314   0.11286  -0.1294  0.3305  1.0000  -2.2604   0.0000   0.0000   0.0000   0.3497
  11.000   1.1438   0.13511   0.12491  -0.1330  0.3166  1.0000  -2.2199   0.0000   0.0000   0.0000   0.3538
  11.500   1.1352   0.14683   0.13672  -0.1371  0.3079  1.0000  -2.1881   0.0000   0.0000   0.0000   0.3577
  12.000   1.1325   0.15707   0.14727  -0.1406  0.2951  1.0000  -2.1800   0.0000   0.0000   0.0000   0.3605
  12.500   1.1364   0.16756   0.15789  -0.1446  0.2883  1.0000  -2.1781   0.0000   0.0000   0.0000   0.3629
  13.000   1.1390   0.17703   0.16746  -0.1484  0.2769  1.0000  -2.1769   0.0000   0.0000   0.0000   0.3654
  13.500   1.1372   0.18873   0.17925  -0.1554  0.2878  1.0000  -2.1155   0.0000   0.0000   0.0000   0.3711
  16.000   1.1712   0.23524   0.22629  -0.1853  0.3395  1.0000  -1.9241   0.0000   0.0000   0.0000   0.3891
  16.500   1.1898   0.24370   0.23486  -0.1886  0.3243  1.0000  -1.9156   0.0000   0.0000   0.0000   0.3886
  17.000   1.2034   0.25035   0.24155  -0.1923  0.3077  1.0000  -1.8877   0.0000   0.0000   0.0000   0.3890
  17.500   1.2201   0.25717   0.24843  -0.1954  0.2847  1.0000  -1.8719   0.0000   0.0000   0.0000   0.3885
  18.000   1.2434   0.26717   0.25850  -0.1981  0.2679  1.0000  -1.8832   0.0000   0.0000   0.0000   0.3867
  18.500   1.2529   0.27104   0.26239  -0.2028  0.2528  1.0000  -1.8734   0.0000   0.0000   0.0000   0.3883
  19.000   1.2694   0.27785   0.26937  -0.2067  0.2394  1.0000  -1.8884   0.0000   0.0000   0.0000   0.3882
  19.500   1.2851   0.28474   0.27631  -0.2112  0.2314  1.0000  -1.8924   0.0000   0.0000   0.0000   0.3887
  20.000   1.3034   0.29281   0.28446  -0.2151  0.2232  1.0000  -1.9065   0.0000   0.0000   0.0000   0.3884


