xflr5 v6.61

 Calculated polar for: E63_10_00

 1 1 Reynolds number fixed          Mach number fixed         

 xtrf =   1.000 (top)        1.000 (bottom)
 Mach =   0.200     Re =     0.125 e 6     Ncrit =   7.000

  alpha     CL        CD       CDp       Cm    Top Xtr Bot Xtr   Cpmin    Chinge    XCp    
 ------- -------- --------- --------- -------- ------- ------- -------- --------- ---------
 -19.500  -0.5437   0.24040   0.23487  -0.0019  1.0000  0.0287  -1.5336   0.0000   0.0000   0.0000   0.2281
 -19.000  -0.5263   0.23303   0.22752  -0.0032  1.0000  0.0294  -1.4460   0.0000   0.0000   0.0000   0.2259
 -18.500  -0.5107   0.22732   0.22183  -0.0051  1.0000  0.0301  -1.3913   0.0000   0.0000   0.0000   0.2224
 -18.000  -0.4956   0.22183   0.21636  -0.0072  1.0000  0.0310  -1.3507   0.0000   0.0000   0.0000   0.2184
 -17.500  -0.4809   0.21636   0.21089  -0.0092  1.0000  0.0321  -1.3180   0.0000   0.0000   0.0000   0.2140
 -17.000  -0.4665   0.21083   0.20539  -0.0112  1.0000  0.0333  -1.2911   0.0000   0.0000   0.0000   0.2095
 -16.500  -0.4526   0.20527   0.19986  -0.0133  1.0000  0.0347  -1.2943   0.0000   0.0000   0.0000   0.2046
 -16.000  -0.4396   0.19984   0.19447  -0.0155  1.0000  0.0362  -1.3337   0.0000   0.0000   0.0000   0.1991
 -15.500  -0.4297   0.19528   0.18995  -0.0183  1.0000  0.0370  -1.4211   0.0000   0.0000   0.0000   0.1920
 -15.000  -0.4239   0.19160   0.18632  -0.0213  1.0000  0.0373  -1.5284   0.0000   0.0000   0.0000   0.1849
 -14.500  -0.4055   0.18279   0.17756  -0.0211  1.0000  0.0381  -1.4630   0.0000   0.0000   0.0000   0.1831
 -14.000  -0.3901   0.17679   0.17160  -0.0212  1.0000  0.0399  -1.3895   0.0000   0.0000   0.0000   0.1812
 -13.500  -0.3783   0.17130   0.16613  -0.0221  1.0000  0.0417  -1.3830   0.0000   0.0000   0.0000   0.1773
 -13.000  -0.3680   0.16579   0.16066  -0.0233  1.0000  0.0438  -1.4035   0.0000   0.0000   0.0000   0.1729
 -12.500  -0.3638   0.16131   0.15624  -0.0256  1.0000  0.0456  -1.5002   0.0000   0.0000   0.0000   0.1663
 -12.000  -0.3671   0.15792   0.15294  -0.0282  1.0000  0.0460  -1.6277   0.0000   0.0000   0.0000   0.1607
 -11.500  -0.3518   0.14964   0.14472  -0.0275  1.0000  0.0466  -1.5800   0.0000   0.0000   0.0000   0.1594
 -11.000  -0.3360   0.14316   0.13829  -0.0260  1.0000  0.0481  -1.4766   0.0000   0.0000   0.0000   0.1602
 -10.500  -0.3274   0.13789   0.13308  -0.0257  1.0000  0.0500  -1.4449   0.0000   0.0000   0.0000   0.1597
 -10.000  -0.3219   0.13272   0.12798  -0.0256  1.0000  0.0524  -1.4455   0.0000   0.0000   0.0000   0.1592
  -9.500  -0.3260   0.12833   0.12369  -0.0267  1.0000  0.0551  -1.5374   0.0000   0.0000   0.0000   0.1575
  -9.000  -0.3407   0.12475   0.12024  -0.0282  1.0000  0.0557  -1.6845   0.0000   0.0000   0.0000   0.1577
  -8.000  -0.3217   0.11244   0.10806  -0.0232  1.0000  0.0581  -1.5334   0.0000   0.0000   0.0000   0.1691
  -7.500  -0.3223   0.10841   0.10413  -0.0210  1.0000  0.0624  -1.5030   0.0000   0.0000   0.0000   0.1768
  -7.000  -0.3527   0.10571   0.10160  -0.0202  1.0000  0.0654  -1.6752   0.0000   0.0000   0.0000   0.1859
  -6.500  -0.2719   0.09484   0.09106  -0.0223  0.9934  0.0702  -1.3946   0.0000   0.0000   0.0000   0.1624
  -6.000  -0.2547   0.08716   0.08341  -0.0290  0.9823  0.0729  -1.4407   0.0000   0.0000   0.0000   0.1303
  -5.500  -0.3199   0.07819   0.07419  -0.0426  0.9826  0.0460  -2.2638   0.0000   0.0000   0.0000   0.1100
  -5.000  -0.2723   0.07030   0.06628  -0.0510  0.9718  0.0432  -2.1636   0.0000   0.0000   0.0000   0.0554
  -4.500  -0.1106   0.03018   0.02384  -0.1179  0.9725  0.0395  -3.2559   0.0000   0.0000   0.0000  -0.8378
  -4.000  -0.0186   0.02546   0.01810  -0.1270  0.9672  0.0480  -2.9821   0.0000   0.0000   0.0000  -6.7023
  -3.500   0.0639   0.02364   0.01584  -0.1324  0.9593  0.0591  -2.6003   0.0000   0.0000   0.0000   2.3528
  -3.000   0.1425   0.02258   0.01451  -0.1367  0.9494  0.0725  -2.2390   0.0000   0.0000   0.0000   1.2211
  -2.500   0.2197   0.02170   0.01356  -0.1406  0.9377  0.0912  -1.8712   0.0000   0.0000   0.0000   0.8959
  -2.000   0.2963   0.02114   0.01302  -0.1442  0.9246  0.1311  -1.4951   0.0000   0.0000   0.0000   0.7401
  -1.500   0.3745   0.02051   0.01250  -0.1479  0.9119  0.1800  -1.1332   0.0000   0.0000   0.0000   0.6467
  -1.000   0.4504   0.01969   0.01182  -0.1509  0.8973  0.2329  -0.9146   0.0000   0.0000   0.0000   0.5856
  -0.500   0.5250   0.01872   0.01104  -0.1534  0.8815  0.2929  -0.7156   0.0000   0.0000   0.0000   0.5418
   0.000   0.6048   0.01746   0.01010  -0.1566  0.8680  0.3790  -0.7894   0.0000   0.0000   0.0000   0.5077
   0.500   0.6783   0.01623   0.00934  -0.1583  0.8479  0.5164  -0.8734   0.0000   0.0000   0.0000   0.4815
   1.000   0.7468   0.01472   0.00853  -0.1582  0.8251  0.7771  -0.9601   0.0000   0.0000   0.0000   0.4594
   1.500   0.8193   0.01377   0.00752  -0.1594  0.7929  1.0000  -1.0611   0.0000   0.0000   0.0000   0.4414
   2.000   0.9048   0.01351   0.00696  -0.1637  0.7491  1.0000  -1.1796   0.0000   0.0000   0.0000   0.4273
   2.500   0.9769   0.01368   0.00676  -0.1655  0.6931  1.0000  -1.2959   0.0000   0.0000   0.0000   0.4151
   3.000   1.0359   0.01421   0.00692  -0.1648  0.6321  1.0000  -1.4085   0.0000   0.0000   0.0000   0.4043
   3.500   1.0868   0.01497   0.00728  -0.1628  0.5722  1.0000  -1.5181   0.0000   0.0000   0.0000   0.3943
   4.000   1.1325   0.01587   0.00784  -0.1599  0.5150  1.0000  -1.6312   0.0000   0.0000   0.0000   0.3851
   4.500   1.1759   0.01687   0.00852  -0.1567  0.4634  1.0000  -1.7494   0.0000   0.0000   0.0000   0.3765
   5.000   1.2182   0.01792   0.00932  -0.1535  0.4177  1.0000  -1.8712   0.0000   0.0000   0.0000   0.3686
   5.500   1.2595   0.01906   0.01026  -0.1501  0.3774  1.0000  -1.9936   0.0000   0.0000   0.0000   0.3612
   6.000   1.3001   0.02022   0.01128  -0.1468  0.3416  1.0000  -2.1502   0.0000   0.0000   0.0000   0.3542
   6.500   1.3391   0.02147   0.01238  -0.1432  0.3109  1.0000  -2.3197   0.0000   0.0000   0.0000   0.3475
   7.000   1.3774   0.02276   0.01369  -0.1396  0.2832  1.0000  -2.4907   0.0000   0.0000   0.0000   0.3412
   7.500   1.4143   0.02416   0.01504  -0.1358  0.2593  1.0000  -2.6626   0.0000   0.0000   0.0000   0.3352
   8.000   1.4482   0.02564   0.01647  -0.1316  0.2365  1.0000  -2.8321   0.0000   0.0000   0.0000   0.3293
   8.500   1.4775   0.02717   0.01799  -0.1269  0.2139  1.0000  -2.9970   0.0000   0.0000   0.0000   0.3235
   9.000   1.5058   0.02878   0.01968  -0.1222  0.1936  1.0000  -3.2335   0.0000   0.0000   0.0000   0.3180
   9.500   1.5335   0.03058   0.02160  -0.1177  0.1766  1.0000  -3.4891   0.0000   0.0000   0.0000   0.3128
  10.000   1.5571   0.03260   0.02377  -0.1129  0.1614  1.0000  -3.7390   0.0000   0.0000   0.0000   0.3077
  10.500   1.5789   0.03485   0.02619  -0.1082  0.1475  1.0000  -3.9869   0.0000   0.0000   0.0000   0.3028
  11.000   1.5990   0.03740   0.02895  -0.1036  0.1359  1.0000  -4.2421   0.0000   0.0000   0.0000   0.2982
  11.500   1.6159   0.04033   0.03210  -0.0992  0.1262  1.0000  -4.5111   0.0000   0.0000   0.0000   0.2939
  12.000   1.6285   0.04374   0.03574  -0.0950  0.1176  1.0000  -4.7662   0.0000   0.0000   0.0000   0.2899
  12.500   1.6385   0.04761   0.03995  -0.0912  0.1090  1.0000  -5.0093   0.0000   0.0000   0.0000   0.2863
  13.000   1.6437   0.05221   0.04489  -0.0879  0.1009  1.0000  -5.2298   0.0000   0.0000   0.0000   0.2831
  13.500   1.6423   0.05772   0.05072  -0.0854  0.0931  1.0000  -5.4202   0.0000   0.0000   0.0000   0.2806
  14.000   1.6351   0.06431   0.05757  -0.0840  0.0863  1.0000  -5.5809   0.0000   0.0000   0.0000   0.2788
  14.500   1.6253   0.07202   0.06572  -0.0838  0.0796  1.0000  -5.7096   0.0000   0.0000   0.0000   0.2779
  15.000   1.6089   0.08120   0.07522  -0.0852  0.0739  1.0000  -5.7974   0.0000   0.0000   0.0000   0.2782
  15.500   1.5884   0.09176   0.08613  -0.0884  0.0686  1.0000  -5.8460   0.0000   0.0000   0.0000   0.2798
  16.000   1.5651   0.10345   0.09814  -0.0929  0.0644  1.0000  -5.8545   0.0000   0.0000   0.0000   0.2824
  16.500   1.5377   0.11662   0.11169  -0.0993  0.0603  1.0000  -5.8078   0.0000   0.0000   0.0000   0.2865
  17.000   1.5186   0.12841   0.12359  -0.1056  0.0566  1.0000  -5.8033   0.0000   0.0000   0.0000   0.2904
  17.500   1.4791   0.14565   0.14133  -0.1167  0.0541  1.0000  -5.5803   0.0000   0.0000   0.0000   0.2989
  18.000   1.4157   0.17013   0.16623  -0.1343  0.0529  1.0000  -5.0637   0.0000   0.0000   0.0000   0.3145
  18.500   1.3273   0.20591   0.20208  -0.1603  0.0487  1.0000  -3.9943   0.0000   0.0000   0.0000   0.3411
  19.000   1.2916   0.23171   0.22776  -0.1776  0.0438  1.0000  -3.1947   0.0000   0.0000   0.0000   0.3583
  19.500   1.2920   0.24492   0.24095  -0.1862  0.0421  1.0000  -2.9272   0.0000   0.0000   0.0000   0.3644
  20.000   1.3045   0.25204   0.24809  -0.1911  0.0398  1.0000  -2.9331   0.0000   0.0000   0.0000   0.3656


