xflr5 v6.61

 Calculated polar for: E63_15_00

 1 1 Reynolds number fixed          Mach number fixed         

 xtrf =   1.000 (top)        1.000 (bottom)
 Mach =   0.200     Re =     0.050 e 6     Ncrit =   7.000

  alpha     CL        CD       CDp       Cm    Top Xtr Bot Xtr   Cpmin    Chinge    XCp    
 ------- -------- --------- --------- -------- ------- ------- -------- --------- ---------
 -29.500  -0.7623   0.34017   0.33075   0.0507  1.0000  0.0561  -1.5999   0.0000   0.0000   0.0000   0.2676
 -29.000  -0.7456   0.33135   0.32191   0.0481  1.0000  0.0573  -1.5379   0.0000   0.0000   0.0000   0.2664
 -28.500  -0.7308   0.32629   0.31685   0.0446  1.0000  0.0590  -1.5034   0.0000   0.0000   0.0000   0.2641
 -28.000  -0.7163   0.32173   0.31228   0.0409  1.0000  0.0609  -1.4811   0.0000   0.0000   0.0000   0.2611
 -27.500  -0.7019   0.31728   0.30782   0.0371  1.0000  0.0626  -1.4653   0.0000   0.0000   0.0000   0.2578
 -27.000  -0.6877   0.31305   0.30357   0.0332  1.0000  0.0642  -1.4560   0.0000   0.0000   0.0000   0.2541
 -26.500  -0.6742   0.30964   0.30016   0.0290  1.0000  0.0652  -1.4653   0.0000   0.0000   0.0000   0.2498
 -26.000  -0.6622   0.30752   0.29805   0.0246  1.0000  0.0657  -1.5019   0.0000   0.0000   0.0000   0.2449
 -25.500  -0.6466   0.30124   0.29181   0.0213  1.0000  0.0662  -1.4947   0.0000   0.0000   0.0000   0.2415
 -25.000  -0.6286   0.29381   0.28438   0.0190  1.0000  0.0676  -1.4477   0.0000   0.0000   0.0000   0.2393
 -24.500  -0.6124   0.28861   0.27917   0.0161  1.0000  0.0695  -1.4253   0.0000   0.0000   0.0000   0.2360
 -24.000  -0.5968   0.28377   0.27435   0.0129  1.0000  0.0717  -1.4145   0.0000   0.0000   0.0000   0.2321
 -23.500  -0.5820   0.27932   0.26992   0.0095  1.0000  0.0739  -1.4161   0.0000   0.0000   0.0000   0.2275
 -23.000  -0.5702   0.27685   0.26748   0.0054  1.0000  0.0754  -1.4484   0.0000   0.0000   0.0000   0.2215
 -22.500  -0.5547   0.27083   0.26152   0.0026  1.0000  0.0765  -1.4366   0.0000   0.0000   0.0000   0.2172
 -22.000  -0.5356   0.26395   0.25466   0.0009  1.0000  0.0791  -1.3792   0.0000   0.0000   0.0000   0.2144
 -21.500  -0.5197   0.25892   0.24966  -0.0017  1.0000  0.0821  -1.3566   0.0000   0.0000   0.0000   0.2100
 -21.000  -0.5054   0.25446   0.24520  -0.0047  1.0000  0.0848  -1.3533   0.0000   0.0000   0.0000   0.2046
 -20.500  -0.4949   0.25171   0.24250  -0.0083  1.0000  0.0861  -1.3780   0.0000   0.0000   0.0000   0.1979
 -20.000  -0.4794   0.24560   0.23646  -0.0106  1.0000  0.0870  -1.3800   0.0000   0.0000   0.0000   0.1929
 -19.500  -0.4598   0.23849   0.22939  -0.0118  1.0000  0.0894  -1.3367   0.0000   0.0000   0.0000   0.1893
 -19.000  -0.4439   0.23325   0.22419  -0.0138  1.0000  0.0924  -1.3254   0.0000   0.0000   0.0000   0.1843
 -18.500  -0.4312   0.22881   0.21980  -0.0163  1.0000  0.0956  -1.3403   0.0000   0.0000   0.0000   0.1781
 -18.000  -0.4245   0.22636   0.21742  -0.0196  1.0000  0.0970  -1.3942   0.0000   0.0000   0.0000   0.1707
 -17.500  -0.4038   0.21805   0.20915  -0.0202  1.0000  0.0988  -1.3469   0.0000   0.0000   0.0000   0.1665
 -17.000  -0.3872   0.21228   0.20344  -0.0214  1.0000  0.1022  -1.3193   0.0000   0.0000   0.0000   0.1616
 -16.500  -0.3762   0.20773   0.19895  -0.0233  1.0000  0.1063  -1.3322   0.0000   0.0000   0.0000   0.1552
 -16.000  -0.3717   0.20433   0.19566  -0.0259  1.0000  0.1080  -1.3840   0.0000   0.0000   0.0000   0.1485
 -15.500  -0.3492   0.19635   0.18773  -0.0256  1.0000  0.1119  -1.3171   0.0000   0.0000   0.0000   0.1443
 -15.000  -0.3402   0.19179   0.18326  -0.0272  1.0000  0.1173  -1.3332   0.0000   0.0000   0.0000   0.1386
 -14.500  -0.3311   0.18623   0.17779  -0.0284  1.0000  0.1200  -1.3501   0.0000   0.0000   0.0000   0.1333
 -14.000  -0.3198   0.18108   0.17272  -0.0288  1.0000  0.1282  -1.3568   0.0000   0.0000   0.0000   0.1291
 -13.500  -0.3079   0.17537   0.16708  -0.0289  1.0000  0.1378  -1.3730   0.0000   0.0000   0.0000   0.1256
 -13.000  -0.2980   0.16980   0.16160  -0.0290  1.0000  0.1464  -1.4001   0.0000   0.0000   0.0000   0.1226
 -12.500  -0.2898   0.16478   0.15667  -0.0289  1.0000  0.1577  -1.4195   0.0000   0.0000   0.0000   0.1207
 -12.000  -0.2897   0.16045   0.15244  -0.0295  1.0000  0.1634  -1.4646   0.0000   0.0000   0.0000   0.1201
 -11.500  -0.2772   0.15482   0.14687  -0.0287  1.0000  0.1702  -1.4386   0.0000   0.0000   0.0000   0.1188
 -11.000  -0.2789   0.15062   0.14278  -0.0288  1.0000  0.1743  -1.4627   0.0000   0.0000   0.0000   0.1207
 -10.500  -0.2665   0.14511   0.13736  -0.0274  1.0000  0.1806  -1.4158   0.0000   0.0000   0.0000   0.1214
 -10.000  -0.2757   0.14172   0.13411  -0.0272  1.0000  0.1848  -1.4468   0.0000   0.0000   0.0000   0.1279
  -9.500  -0.2610   0.13601   0.12848  -0.0251  1.0000  0.1908  -1.3781   0.0000   0.0000   0.0000   0.1306
  -9.000  -0.2663   0.13213   0.12475  -0.0237  1.0000  0.1971  -1.3758   0.0000   0.0000   0.0000   0.1395
  -8.500  -0.2776   0.12930   0.12204  -0.0219  1.0000  0.2058  -1.3807   0.0000   0.0000   0.0000   0.1520
  -8.000  -0.2656   0.12396   0.11683  -0.0190  1.0000  0.2123  -1.3062   0.0000   0.0000   0.0000   0.1599
  -7.500  -0.2943   0.12196   0.11504  -0.0170  1.0000  0.2172  -1.3575   0.0000   0.0000   0.0000   0.1768
  -7.000  -0.2818   0.11672   0.10992  -0.0136  1.0000  0.2225  -1.2744   0.0000   0.0000   0.0000   0.1869
  -6.500  -0.3173   0.11497   0.10838  -0.0105  1.0000  0.2278  -1.3293   0.0000   0.0000   0.0000   0.2048
  -4.500  -0.3647   0.08341   0.07703  -0.0293  0.9849  0.1483  -1.7737   0.0000   0.0000   0.0000   0.1605
  -4.000  -0.3027   0.07219   0.06556  -0.0490  0.9653  0.1554  -1.8226   0.0000   0.0000   0.0000   0.0779
  -3.500  -0.2162   0.05854   0.05125  -0.0737  0.9471  0.1660  -1.8880   0.0000   0.0000   0.0000  -0.1042
  -3.000  -0.1203   0.05101   0.04296  -0.0903  0.9284  0.1864  -1.8091   0.0000   0.0000   0.0000  -0.5219
  -2.500  -0.0303   0.04711   0.03848  -0.1004  0.9080  0.2082  -1.6904   0.0000   0.0000   0.0000  -3.1410
  -2.000   0.0561   0.04430   0.03519  -0.1081  0.8857  0.2295  -1.5466   0.0000   0.0000   0.0000   2.2065
  -1.500   0.1388   0.04229   0.03285  -0.1136  0.8620  0.2516  -1.3854   0.0000   0.0000   0.0000   1.0778
  -1.000   0.2208   0.04067   0.03105  -0.1180  0.8381  0.2758  -1.2131   0.0000   0.0000   0.0000   0.7876
  -0.500   0.3035   0.03917   0.02941  -0.1217  0.8146  0.3072  -1.0365   0.0000   0.0000   0.0000   0.6514
   0.000   0.3748   0.03802   0.02823  -0.1233  0.7874  0.3406  -0.8756   0.0000   0.0000   0.0000   0.5775
   0.500   0.4557   0.03641   0.02662  -0.1254  0.7628  0.3829  -0.9260   0.0000   0.0000   0.0000   0.5224
   1.000   0.5404   0.03456   0.02490  -0.1272  0.7391  0.4440  -1.0221   0.0000   0.0000   0.0000   0.4816
   1.500   0.6152   0.03310   0.02363  -0.1275  0.7108  0.5175  -1.1172   0.0000   0.0000   0.0000   0.4527
   2.000   0.7012   0.03098   0.02186  -0.1287  0.6846  0.6331  -1.2293   0.0000   0.0000   0.0000   0.4281
   2.500   0.7488   0.02944   0.02095  -0.1232  0.6543  0.8317  -1.3076   0.0000   0.0000   0.0000   0.4083
   3.000   0.8452   0.02874   0.01963  -0.1286  0.6195  1.0000  -1.4413   0.0000   0.0000   0.0000   0.3953
   3.500   0.9195   0.02908   0.01946  -0.1302  0.5841  1.0000  -1.5570   0.0000   0.0000   0.0000   0.3841
   4.000   0.9791   0.02995   0.01995  -0.1297  0.5492  1.0000  -1.6582   0.0000   0.0000   0.0000   0.3742
   4.500   1.0365   0.03099   0.02066  -0.1288  0.5167  1.0000  -1.7582   0.0000   0.0000   0.0000   0.3653
   5.000   1.0940   0.03215   0.02149  -0.1280  0.4868  1.0000  -1.8601   0.0000   0.0000   0.0000   0.3574
   5.500   1.1350   0.03386   0.02306  -0.1250  0.4590  1.0000  -1.9547   0.0000   0.0000   0.0000   0.3498
   6.000   1.1835   0.03546   0.02450  -0.1231  0.4339  1.0000  -2.0612   0.0000   0.0000   0.0000   0.3430
   6.500   1.2287   0.03725   0.02612  -0.1209  0.4109  1.0000  -2.1638   0.0000   0.0000   0.0000   0.3366
   7.000   1.2638   0.03947   0.02831  -0.1174  0.3902  1.0000  -2.2517   0.0000   0.0000   0.0000   0.3303
   7.500   1.2923   0.04203   0.03091  -0.1132  0.3716  1.0000  -2.3347   0.0000   0.0000   0.0000   0.3243
   8.000   1.3334   0.04425   0.03313  -0.1107  0.3544  1.0000  -2.4413   0.0000   0.0000   0.0000   0.3190
   8.500   1.3371   0.04765   0.03674  -0.1038  0.3392  1.0000  -2.4895   0.0000   0.0000   0.0000   0.3128
   9.000   1.3510   0.05105   0.04023  -0.0986  0.3255  1.0000  -2.5570   0.0000   0.0000   0.0000   0.3074
   9.500   1.3481   0.05558   0.04497  -0.0925  0.3141  1.0000  -2.5967   0.0000   0.0000   0.0000   0.3022
  10.000   1.2749   0.06533   0.05520  -0.0838  0.3051  1.0000  -2.5015   0.0000   0.0000   0.0000   0.2986
  10.500   1.0515   0.09992   0.09035  -0.0890  0.2904  1.0000  -2.0216   0.0000   0.0000   0.0000   0.3173
  11.000   0.9803   0.12025   0.11083  -0.0968  0.2769  1.0000  -1.8201   0.0000   0.0000   0.0000   0.3312
  11.500   0.9786   0.12967   0.12029  -0.0993  0.2686  1.0000  -1.7949   0.0000   0.0000   0.0000   0.3334
  12.000   0.9565   0.14192   0.13262  -0.1044  0.2596  1.0000  -1.7012   0.0000   0.0000   0.0000   0.3407
  12.500   0.9549   0.15171   0.14245  -0.1082  0.2552  1.0000  -1.6675   0.0000   0.0000   0.0000   0.3443
  13.000   0.9481   0.16177   0.15266  -0.1129  0.2511  1.0000  -1.6115   0.0000   0.0000   0.0000   0.3496
  13.500   0.9625   0.16867   0.15958  -0.1151  0.2446  1.0000  -1.6255   0.0000   0.0000   0.0000   0.3494
  14.000   0.9686   0.17783   0.16882  -0.1193  0.2470  1.0000  -1.6070   0.0000   0.0000   0.0000   0.3524
  17.000   0.7628   0.21023   0.20313  -0.1201  0.2539  1.0000  -0.9877   0.0000   0.0000   0.0000   0.3873
  17.500   0.7736   0.21566   0.20863  -0.1218  0.2441  1.0000  -0.9856   0.0000   0.0000   0.0000   0.3866
  18.000   0.7857   0.22133   0.21437  -0.1235  0.2344  1.0000  -0.9849   0.0000   0.0000   0.0000   0.3854
  18.500   0.7951   0.22673   0.21985  -0.1255  0.2258  1.0000  -0.9718   0.0000   0.0000   0.0000   0.3852
  19.000   0.7974   0.23202   0.22523  -0.1282  0.2197  1.0000  -0.9300   0.0000   0.0000   0.0000   0.3875
  19.500   0.8097   0.23817   0.23150  -0.1300  0.2125  1.0000  -0.9771   0.0000   0.0000   0.0000   0.3863
  20.000   0.8261   0.24478   0.23819  -0.1313  0.2030  1.0000  -1.0444   0.0000   0.0000   0.0000   0.3837


