xflr5 v6.61

 Calculated polar for: E63_14_00

 1 1 Reynolds number fixed          Mach number fixed         

 xtrf =   1.000 (top)        1.000 (bottom)
 Mach =   0.200     Re =     0.090 e 6     Ncrit =   9.000

  alpha     CL        CD       CDp       Cm    Top Xtr Bot Xtr   Cpmin    Chinge    XCp    
 ------- -------- --------- --------- -------- ------- ------- -------- --------- ---------
 -20.000  -0.3109   0.21252   0.20675  -0.0211  1.0000  0.0618  -0.9007   0.0000   0.0000   0.0000   0.1600
 -19.500  -0.3044   0.20917   0.20341  -0.0225  1.0000  0.0643  -0.9170   0.0000   0.0000   0.0000   0.1540
 -19.000  -0.3047   0.20812   0.20237  -0.0247  1.0000  0.0656  -0.9838   0.0000   0.0000   0.0000   0.1469
 -18.500  -0.2942   0.20249   0.19675  -0.0252  1.0000  0.0667  -0.9618   0.0000   0.0000   0.0000   0.1421
 -18.000  -0.2819   0.19798   0.19227  -0.0252  1.0000  0.0695  -0.9127   0.0000   0.0000   0.0000   0.1383
 -17.500  -0.2749   0.19466   0.18897  -0.0259  1.0000  0.0727  -0.9276   0.0000   0.0000   0.0000   0.1332
 -17.000  -0.2741   0.19285   0.18717  -0.0275  1.0000  0.0751  -0.9922   0.0000   0.0000   0.0000   0.1273
 -15.500  -0.3688   0.19408   0.18772  -0.0242  1.0000  0.0774  -1.3551   0.0000   0.0000   0.0000   0.1564
 -15.000  -0.3532   0.18847   0.18216  -0.0246  1.0000  0.0800  -1.3159   0.0000   0.0000   0.0000   0.1525
 -14.500  -0.3419   0.18327   0.17703  -0.0257  1.0000  0.0835  -1.3136   0.0000   0.0000   0.0000   0.1474
 -14.000  -0.3444   0.18030   0.17414  -0.0287  1.0000  0.0862  -1.4081   0.0000   0.0000   0.0000   0.1406
 -13.500  -0.3289   0.17279   0.16667  -0.0286  1.0000  0.0875  -1.3740   0.0000   0.0000   0.0000   0.1370
 -13.000  -0.3123   0.16681   0.16075  -0.0279  1.0000  0.0907  -1.3128   0.0000   0.0000   0.0000   0.1348
 -12.500  -0.3068   0.16192   0.15594  -0.0287  1.0000  0.0955  -1.3311   0.0000   0.0000   0.0000   0.1314
 -12.000  -0.3166   0.15800   0.15214  -0.0309  1.0000  0.0974  -1.4395   0.0000   0.0000   0.0000   0.1291
 -11.500  -0.2918   0.15057   0.14475  -0.0284  1.0000  0.1016  -1.3318   0.0000   0.0000   0.0000   0.1287
 -11.000  -0.3057   0.14722   0.14151  -0.0302  1.0000  0.1075  -1.4691   0.0000   0.0000   0.0000   0.1295
 -10.500  -0.2852   0.13978   0.13414  -0.0276  1.0000  0.1128  -1.4374   0.0000   0.0000   0.0000   0.1311
  -9.750  -0.2850   0.13195   0.12645  -0.0263  1.0000  0.1235  -1.5293   0.0000   0.0000   0.0000   0.1373
  -9.500  -0.2959   0.13062   0.12517  -0.0267  1.0000  0.1287  -1.5917   0.0000   0.0000   0.0000   0.1409
  -9.250  -0.3111   0.12893   0.12357  -0.0271  1.0000  0.1299  -1.6696   0.0000   0.0000   0.0000   0.1453
  -9.000  -0.2865   0.12514   0.11977  -0.0242  1.0000  0.1341  -1.5566   0.0000   0.0000   0.0000   0.1472
  -8.750  -0.2935   0.12360   0.11829  -0.0238  1.0000  0.1388  -1.5816   0.0000   0.0000   0.0000   0.1518
  -8.500  -0.3175   0.12292   0.11770  -0.0243  1.0000  0.1401  -1.6770   0.0000   0.0000   0.0000   0.1581
  -8.250  -0.2911   0.11911   0.11387  -0.0212  1.0000  0.1453  -1.5474   0.0000   0.0000   0.0000   0.1611
  -8.000  -0.3009   0.11778   0.11261  -0.0205  1.0000  0.1496  -1.5721   0.0000   0.0000   0.0000   0.1670
  -7.750  -0.3275   0.11721   0.11218  -0.0204  1.0000  0.1510  -1.6625   0.0000   0.0000   0.0000   0.1743
  -7.500  -0.3036   0.11355   0.10849  -0.0176  1.0000  0.1549  -1.5451   0.0000   0.0000   0.0000   0.1782
  -7.250  -0.3074   0.11197   0.10697  -0.0161  1.0000  0.1587  -1.5354   0.0000   0.0000   0.0000   0.1846
  -7.000  -0.3321   0.11130   0.10640  -0.0153  1.0000  0.1615  -1.6049   0.0000   0.0000   0.0000   0.1922
  -6.750  -0.3663   0.11103   0.10624  -0.0140  1.0000  0.1621  -1.6997   0.0000   0.0000   0.0000   0.2015
  -6.500  -0.3335   0.10687   0.10209  -0.0116  1.0000  0.1650  -1.5580   0.0000   0.0000   0.0000   0.2045
  -6.250  -0.3368   0.10527   0.10054  -0.0096  1.0000  0.1675  -1.5383   0.0000   0.0000   0.0000   0.2113
  -6.000  -0.3516   0.10412   0.09947  -0.0076  1.0000  0.1704  -1.5564   0.0000   0.0000   0.0000   0.2189
  -5.750  -0.3929   0.10404   0.09951  -0.0060  1.0000  0.1727  -1.6610   0.0000   0.0000   0.0000   0.2268
  -5.500  -0.4042   0.10170   0.09725  -0.0057  1.0000  0.1738  -1.6827   0.0000   0.0000   0.0000   0.2283
  -5.250  -0.3930   0.09938   0.09496  -0.0031  0.9994  0.1755  -1.6077   0.0000   0.0000   0.0000   0.2348
  -5.000  -0.3620   0.09586   0.09141  -0.0104  0.9901  0.1820  -1.5492   0.0000   0.0000   0.0000   0.2136
  -4.750  -0.3377   0.09147   0.08699  -0.0188  0.9803  0.1862  -1.5258   0.0000   0.0000   0.0000   0.1864
  -4.000  -0.1909   0.04332   0.03667  -0.0972  0.9598  0.1290  -2.1908   0.0000   0.0000   0.0000  -0.2762
  -3.750  -0.1472   0.04182   0.03514  -0.1011  0.9515  0.1332  -2.0997   0.0000   0.0000   0.0000  -0.4573
  -3.500  -0.0960   0.03815   0.03077  -0.1082  0.9435  0.1419  -2.0750   0.0000   0.0000   0.0000  -0.9080
  -3.250  -0.0512   0.03689   0.02924  -0.1121  0.9345  0.1523  -1.9864   0.0000   0.0000   0.0000  -1.9936
  -3.000  -0.0093   0.03637   0.02864  -0.1149  0.9249  0.1638  -1.8756   0.0000   0.0000   0.0000  -12.3810
  -2.750   0.0311   0.03618   0.02852  -0.1171  0.9150  0.1767  -1.7557   0.0000   0.0000   0.0000   4.0832
  -2.500   0.0750   0.03539   0.02761  -0.1201  0.9056  0.1888  -1.6496   0.0000   0.0000   0.0000   1.8779
  -2.250   0.1202   0.03447   0.02654  -0.1232  0.8965  0.2009  -1.5610   0.0000   0.0000   0.0000   1.2886
  -2.000   0.1711   0.03347   0.02537  -0.1270  0.8890  0.2145  -1.4633   0.0000   0.0000   0.0000   1.0005
  -1.750   0.2136   0.03257   0.02433  -0.1293  0.8789  0.2258  -1.3752   0.0000   0.0000   0.0000   0.8609
  -1.500   0.2559   0.03178   0.02342  -0.1314  0.8687  0.2396  -1.2835   0.0000   0.0000   0.0000   0.7671
  -1.250   0.2973   0.03098   0.02264  -0.1332  0.8584  0.2521  -1.1903   0.0000   0.0000   0.0000   0.7002
  -1.000   0.3387   0.03020   0.02189  -0.1348  0.8481  0.2667  -1.0963   0.0000   0.0000   0.0000   0.6491
  -0.750   0.3814   0.02933   0.02096  -0.1366  0.8379  0.2836  -1.0039   0.0000   0.0000   0.0000   0.6083
  -0.500   0.4236   0.02841   0.02011  -0.1381  0.8277  0.3004  -0.9100   0.0000   0.0000   0.0000   0.5753
  -0.250   0.4670   0.02740   0.01916  -0.1396  0.8178  0.3213  -0.8611   0.0000   0.0000   0.0000   0.5476
   0.000   0.5120   0.02629   0.01811  -0.1412  0.8082  0.3462  -0.9091   0.0000   0.0000   0.0000   0.5239
   0.500   0.6075   0.02385   0.01583  -0.1452  0.7883  0.4036  -1.0142   0.0000   0.0000   0.0000   0.4862
   0.750   0.6558   0.02273   0.01488  -0.1473  0.7764  0.4409  -1.0688   0.0000   0.0000   0.0000   0.4714
   1.000   0.7074   0.02167   0.01397  -0.1501  0.7632  0.4882  -1.1314   0.0000   0.0000   0.0000   0.4585
   1.250   0.7642   0.02062   0.01308  -0.1538  0.7488  0.5481  -1.1994   0.0000   0.0000   0.0000   0.4473
   1.500   0.8020   0.02007   0.01267  -0.1542  0.7291  0.6097  -1.2551   0.0000   0.0000   0.0000   0.4379
   1.750   0.8366   0.01956   0.01235  -0.1540  0.7088  0.6865  -1.3100   0.0000   0.0000   0.0000   0.4293
   2.000   0.8613   0.01906   0.01209  -0.1515  0.6886  0.7891  -1.3560   0.0000   0.0000   0.0000   0.4209
   2.250   0.8924   0.01857   0.01158  -0.1508  0.6667  1.0000  -1.4077   0.0000   0.0000   0.0000   0.4136
   2.500   0.9294   0.01877   0.01144  -0.1520  0.6434  1.0000  -1.4652   0.0000   0.0000   0.0000   0.4078
   2.750   0.9619   0.01905   0.01144  -0.1522  0.6207  1.0000  -1.5191   0.0000   0.0000   0.0000   0.4021
   3.000   0.9917   0.01940   0.01154  -0.1520  0.5986  1.0000  -1.5706   0.0000   0.0000   0.0000   0.3967
   3.250   1.0194   0.01981   0.01172  -0.1513  0.5772  1.0000  -1.6202   0.0000   0.0000   0.0000   0.3916
   3.500   1.0457   0.02026   0.01196  -0.1505  0.5566  1.0000  -1.6686   0.0000   0.0000   0.0000   0.3867
   3.750   1.0716   0.02074   0.01224  -0.1496  0.5370  1.0000  -1.7168   0.0000   0.0000   0.0000   0.3820
   4.000   1.0990   0.02124   0.01253  -0.1489  0.5187  1.0000  -1.7669   0.0000   0.0000   0.0000   0.3776
   4.250   1.1221   0.02178   0.01293  -0.1476  0.5003  1.0000  -1.8122   0.0000   0.0000   0.0000   0.3733
   4.500   1.1460   0.02233   0.01333  -0.1464  0.4830  1.0000  -1.8587   0.0000   0.0000   0.0000   0.3691
   4.750   1.1702   0.02289   0.01372  -0.1452  0.4664  1.0000  -1.9115   0.0000   0.0000   0.0000   0.3652
   5.000   1.1924   0.02348   0.01418  -0.1438  0.4504  1.0000  -1.9642   0.0000   0.0000   0.0000   0.3613
   5.500   1.2403   0.02468   0.01512  -0.1415  0.4212  1.0000  -2.0751   0.0000   0.0000   0.0000   0.3541
   5.750   1.2614   0.02536   0.01573  -0.1400  0.4076  1.0000  -2.1264   0.0000   0.0000   0.0000   0.3506
   6.000   1.2837   0.02607   0.01638  -0.1387  0.3951  1.0000  -2.1793   0.0000   0.0000   0.0000   0.3473
   6.250   1.3067   0.02680   0.01705  -0.1375  0.3835  1.0000  -2.2343   0.0000   0.0000   0.0000   0.3441
   6.500   1.3293   0.02756   0.01774  -0.1363  0.3723  1.0000  -2.2925   0.0000   0.0000   0.0000   0.3410
   6.750   1.3517   0.02833   0.01845  -0.1350  0.3617  1.0000  -2.3505   0.0000   0.0000   0.0000   0.3380
   7.000   1.3745   0.02914   0.01921  -0.1339  0.3517  1.0000  -2.4092   0.0000   0.0000   0.0000   0.3352
   7.250   1.3985   0.02998   0.02006  -0.1329  0.3424  1.0000  -2.4702   0.0000   0.0000   0.0000   0.3324
   7.500   1.4245   0.03083   0.02080  -0.1324  0.3335  1.0000  -2.5399   0.0000   0.0000   0.0000   0.3299
   7.750   1.4416   0.03178   0.02184  -0.1303  0.3247  1.0000  -2.5946   0.0000   0.0000   0.0000   0.3270
   8.000   1.4599   0.03276   0.02286  -0.1285  0.3163  1.0000  -2.6517   0.0000   0.0000   0.0000   0.3243
   8.250   1.4806   0.03370   0.02378  -0.1271  0.3083  1.0000  -2.7139   0.0000   0.0000   0.0000   0.3217
   8.500   1.5067   0.03455   0.02450  -0.1266  0.3003  1.0000  -2.7862   0.0000   0.0000   0.0000   0.3194
   8.750   1.5178   0.03560   0.02570  -0.1237  0.2926  1.0000  -2.8324   0.0000   0.0000   0.0000   0.3165
   9.000   1.5338   0.03670   0.02687  -0.1216  0.2856  1.0000  -2.8865   0.0000   0.0000   0.0000   0.3139
   9.250   1.5633   0.03761   0.02761  -0.1217  0.2788  1.0000  -2.9651   0.0000   0.0000   0.0000   0.3121
   9.500   1.5660   0.03901   0.02929  -0.1177  0.2727  1.0000  -2.9947   0.0000   0.0000   0.0000   0.3090
   9.750   1.5920   0.04012   0.03039  -0.1173  0.2670  1.0000  -3.0720   0.0000   0.0000   0.0000   0.3071
  10.000   1.5950   0.04157   0.03207  -0.1134  0.2614  1.0000  -3.1206   0.0000   0.0000   0.0000   0.3042
  10.250   1.6185   0.04272   0.03316  -0.1127  0.2559  1.0000  -3.2140   0.0000   0.0000   0.0000   0.3022
  10.500   1.6154   0.04428   0.03497  -0.1081  0.2510  1.0000  -3.2505   0.0000   0.0000   0.0000   0.2991
  10.750   1.6445   0.04536   0.03593  -0.1083  0.2457  1.0000  -3.3576   0.0000   0.0000   0.0000   0.2976
  11.000   1.6293   0.04738   0.03830  -0.1023  0.2419  1.0000  -3.3667   0.0000   0.0000   0.0000   0.2941
  11.250   1.6438   0.04879   0.03975  -0.1005  0.2376  1.0000  -3.4416   0.0000   0.0000   0.0000   0.2920
  11.500   1.6489   0.05061   0.04169  -0.0977  0.2338  1.0000  -3.4951   0.0000   0.0000   0.0000   0.2897
  11.750   1.6285   0.05316   0.04455  -0.0921  0.2306  1.0000  -3.4912   0.0000   0.0000   0.0000   0.2866
  12.000   1.6491   0.05432   0.04568  -0.0911  0.2261  1.0000  -3.5819   0.0000   0.0000   0.0000   0.2848
  12.250   1.6393   0.05683   0.04841  -0.0873  0.2231  1.0000  -3.6011   0.0000   0.0000   0.0000   0.2824
  12.500   1.5995   0.06090   0.05282  -0.0816  0.2210  1.0000  -3.5481   0.0000   0.0000   0.0000   0.2797
  12.750   1.5674   0.06520   0.05741  -0.0777  0.2186  1.0000  -3.5098   0.0000   0.0000   0.0000   0.2779
  13.000   1.6324   0.06409   0.05606  -0.0795  0.2137  1.0000  -3.7069   0.0000   0.0000   0.0000   0.2765
  13.250   1.5655   0.07083   0.06325  -0.0746  0.2129  1.0000  -3.5794   0.0000   0.0000   0.0000   0.2750
  13.500   1.4528   0.08410   0.07700  -0.0735  0.2129  1.0000  -3.3175   0.0000   0.0000   0.0000   0.2775
  14.000   0.9751   0.18437   0.17800  -0.1337  0.2643  1.0000  -1.5227   0.0000   0.0000   0.0000   0.3677
  14.500   0.9904   0.19055   0.18421  -0.1361  0.2539  1.0000  -1.5516   0.0000   0.0000   0.0000   0.3671
  14.750   0.7813   0.18617   0.18086  -0.1194  0.2400  1.0000  -1.0963   0.0000   0.0000   0.0000   0.3853
  15.000   1.0312   0.19749   0.19120  -0.1356  0.2464  1.0000  -1.6582   0.0000   0.0000   0.0000   0.3602
  16.500   0.8103   0.20532   0.20023  -0.1261  0.2065  1.0000  -1.0760   0.0000   0.0000   0.0000   0.3857
  17.000   0.8165   0.21109   0.20606  -0.1284  0.1973  1.0000  -1.0498   0.0000   0.0000   0.0000   0.3866
  17.500   0.8249   0.21695   0.21197  -0.1305  0.1888  1.0000  -1.0277   0.0000   0.0000   0.0000   0.3868
  18.000   0.8470   0.22316   0.21824  -0.1310  0.1820  1.0000  -1.0921   0.0000   0.0000   0.0000   0.3822
  18.500   0.8404   0.22880   0.22395  -0.1351  0.1744  1.0000  -1.0639   0.0000   0.0000   0.0000   0.3877
  19.000   0.8616   0.23596   0.23121  -0.1358  0.1706  1.0000  -1.1565   0.0000   0.0000   0.0000   0.3834
  19.500   0.8556   0.24115   0.23648  -0.1399  0.1633  1.0000  -1.1250   0.0000   0.0000   0.0000   0.3887
  20.000   0.8779   0.24881   0.24420  -0.1404  0.1600  1.0000  -1.2229   0.0000   0.0000   0.0000   0.3840


