xflr5 v6.61

 Calculated polar for: E63_13_00

 1 1 Reynolds number fixed          Mach number fixed         

 xtrf =   1.000 (top)        1.000 (bottom)
 Mach =   0.200     Re =     0.090 e 6     Ncrit =   9.000

  alpha     CL        CD       CDp       Cm    Top Xtr Bot Xtr   Cpmin    Chinge    XCp    
 ------- -------- --------- --------- -------- ------- ------- -------- --------- ---------
 -20.000  -0.5130   0.24644   0.23973  -0.0066  1.0000  0.0556  -1.4629   0.0000   0.0000   0.0000   0.2095
 -19.500  -0.5060   0.24467   0.23803  -0.0105  1.0000  0.0559  -1.5330   0.0000   0.0000   0.0000   0.2024
 -19.000  -0.4796   0.23252   0.22588  -0.0102  1.0000  0.0571  -1.4075   0.0000   0.0000   0.0000   0.2017
 -18.500  -0.4627   0.22674   0.22014  -0.0117  1.0000  0.0589  -1.3599   0.0000   0.0000   0.0000   0.1981
 -18.000  -0.4475   0.22143   0.21487  -0.0136  1.0000  0.0612  -1.3371   0.0000   0.0000   0.0000   0.1934
 -17.500  -0.4339   0.21634   0.20979  -0.0158  1.0000  0.0639  -1.3372   0.0000   0.0000   0.0000   0.1877
 -17.000  -0.4279   0.21354   0.20705  -0.0195  1.0000  0.0656  -1.4091   0.0000   0.0000   0.0000   0.1793
 -16.500  -0.4134   0.20660   0.20017  -0.0209  1.0000  0.0664  -1.3913   0.0000   0.0000   0.0000   0.1745
 -16.000  -0.3932   0.19968   0.19329  -0.0208  1.0000  0.0693  -1.2950   0.0000   0.0000   0.0000   0.1722
 -15.500  -0.3806   0.19464   0.18830  -0.0223  1.0000  0.0735  -1.2956   0.0000   0.0000   0.0000   0.1669
 -15.000  -0.3837   0.19329   0.18703  -0.0262  1.0000  0.0756  -1.4254   0.0000   0.0000   0.0000   0.1585
 -14.500  -0.3621   0.18403   0.17783  -0.0258  1.0000  0.0769  -1.3658   0.0000   0.0000   0.0000   0.1554
 -14.000  -0.3455   0.17794   0.17178  -0.0256  1.0000  0.0795  -1.3173   0.0000   0.0000   0.0000   0.1525
 -13.500  -0.3346   0.17268   0.16656  -0.0264  1.0000  0.0830  -1.3147   0.0000   0.0000   0.0000   0.1483
 -13.000  -0.3362   0.16929   0.16325  -0.0289  1.0000  0.0860  -1.4008   0.0000   0.0000   0.0000   0.1424
 -12.500  -0.3270   0.16277   0.15681  -0.0292  1.0000  0.0872  -1.4050   0.0000   0.0000   0.0000   0.1393
 -12.000  -0.3091   0.15632   0.15042  -0.0280  1.0000  0.0902  -1.3324   0.0000   0.0000   0.0000   0.1383
 -11.500  -0.3027   0.15130   0.14548  -0.0281  1.0000  0.0946  -1.3361   0.0000   0.0000   0.0000   0.1364
 -11.000  -0.3229   0.14927   0.14358  -0.0309  1.0000  0.0970  -1.4869   0.0000   0.0000   0.0000   0.1359
 -10.500  -0.2946   0.14047   0.13483  -0.0280  1.0000  0.0998  -1.3643   0.0000   0.0000   0.0000   0.1360
 -10.000  -0.2905   0.13558   0.13004  -0.0272  1.0000  0.1051  -1.3625   0.0000   0.0000   0.0000   0.1382
  -9.750  -0.3045   0.13446   0.12900  -0.0284  1.0000  0.1073  -1.4468   0.0000   0.0000   0.0000   0.1400
  -9.250  -0.2924   0.12771   0.12234  -0.0261  1.0000  0.1104  -1.4055   0.0000   0.0000   0.0000   0.1441
  -9.000  -0.2894   0.12530   0.11998  -0.0251  1.0000  0.1138  -1.4002   0.0000   0.0000   0.0000   0.1473
  -8.750  -0.3007   0.12372   0.11847  -0.0253  1.0000  0.1176  -1.4711   0.0000   0.0000   0.0000   0.1509
  -8.500  -0.3262   0.12307   0.11792  -0.0262  1.0000  0.1186  -1.5929   0.0000   0.0000   0.0000   0.1561
  -8.250  -0.2977   0.11796   0.11279  -0.0229  1.0000  0.1227  -1.5073   0.0000   0.0000   0.0000   0.1590
  -8.000  -0.3058   0.11618   0.11108  -0.0222  1.0000  0.1277  -1.5567   0.0000   0.0000   0.0000   0.1641
  -7.750  -0.3339   0.11557   0.11061  -0.0225  1.0000  0.1293  -1.6741   0.0000   0.0000   0.0000   0.1707
  -7.500  -0.3112   0.11131   0.10632  -0.0196  1.0000  0.1336  -1.6065   0.0000   0.0000   0.0000   0.1749
  -7.250  -0.3241   0.11005   0.10513  -0.0186  1.0000  0.1389  -1.6509   0.0000   0.0000   0.0000   0.1815
  -7.000  -0.3548   0.10955   0.10475  -0.0178  1.0000  0.1401  -1.7527   0.0000   0.0000   0.0000   0.1898
  -6.750  -0.3350   0.10574   0.10095  -0.0153  1.0000  0.1432  -1.6782   0.0000   0.0000   0.0000   0.1941
  -6.500  -0.3389   0.10418   0.09944  -0.0133  1.0000  0.1475  -1.6707   0.0000   0.0000   0.0000   0.2012
  -6.250  -0.3619   0.10328   0.09864  -0.0115  1.0000  0.1498  -1.7282   0.0000   0.0000   0.0000   0.2097
  -6.000  -0.3899   0.10234   0.09780  -0.0102  1.0000  0.1507  -1.8052   0.0000   0.0000   0.0000   0.2162
  -5.750  -0.3743   0.09977   0.09525  -0.0068  1.0000  0.1557  -1.7139   0.0000   0.0000   0.0000   0.2244
  -5.500  -0.3879   0.09837   0.09393  -0.0058  1.0000  0.1599  -1.7389   0.0000   0.0000   0.0000   0.2282
  -5.250  -0.4087   0.09586   0.09149  -0.0106  1.0000  0.1619  -1.8453   0.0000   0.0000   0.0000   0.2177
  -5.000  -0.3965   0.09443   0.09010  -0.0037  1.0000  0.1677  -1.7247   0.0000   0.0000   0.0000   0.2343
  -4.250  -0.3001   0.06207   0.05702  -0.0625  0.9820  0.1295  -2.1706   0.0000   0.0000   0.0000   0.0328
  -4.000  -0.2525   0.05587   0.05057  -0.0731  0.9745  0.1302  -2.1148   0.0000   0.0000   0.0000  -0.0495
  -3.750  -0.1862   0.04681   0.04084  -0.0893  0.9701  0.1281  -2.0989   0.0000   0.0000   0.0000  -0.2436
  -3.500  -0.1169   0.03849   0.03122  -0.1039  0.9653  0.1296  -2.0770   0.0000   0.0000   0.0000  -0.6606
  -3.250  -0.0753   0.03765   0.03048  -0.1068  0.9564  0.1341  -1.9412   0.0000   0.0000   0.0000  -1.1997
  -3.000  -0.0222   0.03543   0.02771  -0.1127  0.9495  0.1431  -1.8867   0.0000   0.0000   0.0000  -4.9385
  -2.750   0.0259   0.03450   0.02659  -0.1168  0.9415  0.1547  -1.7924   0.0000   0.0000   0.0000   4.8410
  -2.500   0.0687   0.03403   0.02605  -0.1197  0.9318  0.1687  -1.6875   0.0000   0.0000   0.0000   2.0193
  -2.250   0.1121   0.03355   0.02543  -0.1226  0.9219  0.1859  -1.5811   0.0000   0.0000   0.0000   1.3579
  -2.000   0.1548   0.03295   0.02481  -0.1252  0.9120  0.1994  -1.4757   0.0000   0.0000   0.0000   1.0677
  -1.750   0.1985   0.03232   0.02403  -0.1279  0.9020  0.2154  -1.3753   0.0000   0.0000   0.0000   0.9000
  -1.500   0.2419   0.03158   0.02320  -0.1304  0.8919  0.2295  -1.2881   0.0000   0.0000   0.0000   0.7927
  -1.250   0.2840   0.03097   0.02264  -0.1325  0.8817  0.2451  -1.1947   0.0000   0.0000   0.0000   0.7187
  -1.000   0.3271   0.03025   0.02185  -0.1347  0.8715  0.2621  -1.1042   0.0000   0.0000   0.0000   0.6628
  -0.750   0.3695   0.02957   0.02120  -0.1366  0.8612  0.2807  -1.0109   0.0000   0.0000   0.0000   0.6199
  -0.500   0.4122   0.02880   0.02049  -0.1384  0.8509  0.3004  -0.9181   0.0000   0.0000   0.0000   0.5853
  -0.250   0.4554   0.02797   0.01972  -0.1401  0.8407  0.3234  -0.8254   0.0000   0.0000   0.0000   0.5567
   0.000   0.4991   0.02705   0.01890  -0.1418  0.8306  0.3509  -0.8473   0.0000   0.0000   0.0000   0.5325
   0.250   0.5452   0.02594   0.01789  -0.1436  0.8213  0.3827  -0.8971   0.0000   0.0000   0.0000   0.5114
   0.500   0.5982   0.02447   0.01658  -0.1463  0.8144  0.4208  -0.9537   0.0000   0.0000   0.0000   0.4922
   0.750   0.6443   0.02330   0.01559  -0.1481  0.8037  0.4674  -1.0057   0.0000   0.0000   0.0000   0.4769
   1.000   0.6932   0.02208   0.01460  -0.1502  0.7926  0.5266  -1.0654   0.0000   0.0000   0.0000   0.4634
   1.250   0.7329   0.02121   0.01397  -0.1508  0.7772  0.5948  -1.1175   0.0000   0.0000   0.0000   0.4521
   1.500   0.7790   0.02007   0.01316  -0.1522  0.7627  0.6955  -1.1812   0.0000   0.0000   0.0000   0.4414
   2.000   0.8572   0.01836   0.01158  -0.1529  0.7252  1.0000  -1.2986   0.0000   0.0000   0.0000   0.4237
   2.250   0.8991   0.01827   0.01122  -0.1546  0.7019  1.0000  -1.3604   0.0000   0.0000   0.0000   0.4170
   2.500   0.9365   0.01832   0.01102  -0.1555  0.6774  1.0000  -1.4184   0.0000   0.0000   0.0000   0.4107
   2.750   0.9713   0.01849   0.01093  -0.1559  0.6529  1.0000  -1.4745   0.0000   0.0000   0.0000   0.4049
   3.000   1.0041   0.01874   0.01093  -0.1560  0.6288  1.0000  -1.5290   0.0000   0.0000   0.0000   0.3994
   3.250   1.0311   0.01911   0.01110  -0.1552  0.6045  1.0000  -1.5778   0.0000   0.0000   0.0000   0.3942
   3.500   1.0579   0.01953   0.01131  -0.1543  0.5812  1.0000  -1.6265   0.0000   0.0000   0.0000   0.3892
   3.750   1.0840   0.01999   0.01158  -0.1534  0.5589  1.0000  -1.6747   0.0000   0.0000   0.0000   0.3845
   4.000   1.1095   0.02049   0.01190  -0.1524  0.5375  1.0000  -1.7224   0.0000   0.0000   0.0000   0.3800
   4.250   1.1344   0.02100   0.01222  -0.1512  0.5169  1.0000  -1.7747   0.0000   0.0000   0.0000   0.3756
   4.500   1.1597   0.02155   0.01256  -0.1502  0.4974  1.0000  -1.8308   0.0000   0.0000   0.0000   0.3715
   4.750   1.1812   0.02211   0.01301  -0.1486  0.4779  1.0000  -1.8822   0.0000   0.0000   0.0000   0.3674
   5.000   1.2035   0.02270   0.01347  -0.1471  0.4597  1.0000  -1.9347   0.0000   0.0000   0.0000   0.3635
   5.250   1.2283   0.02330   0.01392  -0.1461  0.4432  1.0000  -1.9910   0.0000   0.0000   0.0000   0.3598
   5.500   1.2490   0.02395   0.01450  -0.1444  0.4268  1.0000  -2.0415   0.0000   0.0000   0.0000   0.3562
   5.750   1.2730   0.02463   0.01506  -0.1433  0.4123  1.0000  -2.1010   0.0000   0.0000   0.0000   0.3528
   6.000   1.2986   0.02535   0.01562  -0.1426  0.3989  1.0000  -2.1630   0.0000   0.0000   0.0000   0.3496
   6.250   1.3195   0.02609   0.01635  -0.1410  0.3854  1.0000  -2.2181   0.0000   0.0000   0.0000   0.3464
   6.500   1.3415   0.02686   0.01706  -0.1397  0.3728  1.0000  -2.2767   0.0000   0.0000   0.0000   0.3432
   6.750   1.3643   0.02766   0.01782  -0.1385  0.3611  1.0000  -2.3401   0.0000   0.0000   0.0000   0.3403
   7.000   1.3870   0.02850   0.01861  -0.1373  0.3501  1.0000  -2.4037   0.0000   0.0000   0.0000   0.3374
   7.250   1.4097   0.02937   0.01953  -0.1361  0.3396  1.0000  -2.4672   0.0000   0.0000   0.0000   0.3346
   7.500   1.4319   0.03026   0.02038  -0.1349  0.3296  1.0000  -2.5305   0.0000   0.0000   0.0000   0.3318
   7.750   1.4537   0.03114   0.02122  -0.1336  0.3197  1.0000  -2.5941   0.0000   0.0000   0.0000   0.3291
   8.000   1.4760   0.03201   0.02204  -0.1324  0.3102  1.0000  -2.6591   0.0000   0.0000   0.0000   0.3266
   8.250   1.4979   0.03291   0.02290  -0.1312  0.3012  1.0000  -2.7237   0.0000   0.0000   0.0000   0.3240
   8.500   1.5133   0.03393   0.02404  -0.1289  0.2925  1.0000  -2.7759   0.0000   0.0000   0.0000   0.3212
   8.750   1.5311   0.03503   0.02520  -0.1270  0.2847  1.0000  -2.8521   0.0000   0.0000   0.0000   0.3187
   9.000   1.5558   0.03609   0.02620  -0.1264  0.2776  1.0000  -2.9464   0.0000   0.0000   0.0000   0.3165
   9.250   1.5714   0.03723   0.02744  -0.1242  0.2703  1.0000  -3.0217   0.0000   0.0000   0.0000   0.3139
   9.500   1.5854   0.03849   0.02882  -0.1219  0.2636  1.0000  -3.0941   0.0000   0.0000   0.0000   0.3114
   9.750   1.6135   0.03950   0.02975  -0.1218  0.2569  1.0000  -3.1993   0.0000   0.0000   0.0000   0.3095
  10.000   1.6156   0.04100   0.03156  -0.1178  0.2510  1.0000  -3.2455   0.0000   0.0000   0.0000   0.3065
  10.250   1.6409   0.04221   0.03271  -0.1173  0.2453  1.0000  -3.3443   0.0000   0.0000   0.0000   0.3047
  10.500   1.6411   0.04382   0.03460  -0.1131  0.2401  1.0000  -3.3869   0.0000   0.0000   0.0000   0.3018
  10.750   1.6665   0.04501   0.03571  -0.1127  0.2346  1.0000  -3.4882   0.0000   0.0000   0.0000   0.3000
  11.000   1.6575   0.04682   0.03783  -0.1074  0.2302  1.0000  -3.5107   0.0000   0.0000   0.0000   0.2968
  11.250   1.6937   0.04786   0.03870  -0.1085  0.2246  1.0000  -3.6375   0.0000   0.0000   0.0000   0.2956
  11.500   1.6708   0.05019   0.04145  -0.1017  0.2217  1.0000  -3.6265   0.0000   0.0000   0.0000   0.2920
  11.750   1.6670   0.05226   0.04374  -0.0978  0.2180  1.0000  -3.6590   0.0000   0.0000   0.0000   0.2894
  12.000   1.6976   0.05348   0.04490  -0.0981  0.2134  1.0000  -3.7729   0.0000   0.0000   0.0000   0.2881
  12.250   1.6641   0.05662   0.04846  -0.0914  0.2112  1.0000  -3.7344   0.0000   0.0000   0.0000   0.2848
  12.500   1.6403   0.05982   0.05195  -0.0865  0.2085  1.0000  -3.7176   0.0000   0.0000   0.0000   0.2822
  12.750   1.6813   0.05990   0.05184  -0.0873  0.2025  1.0000  -3.8643   0.0000   0.0000   0.0000   0.2808
  13.000   1.6364   0.06449   0.05685  -0.0816  0.2013  1.0000  -3.7918   0.0000   0.0000   0.0000   0.2784
  13.250   1.5853   0.07051   0.06326  -0.0776  0.2002  1.0000  -3.6970   0.0000   0.0000   0.0000   0.2770
  13.500   1.5085   0.08025   0.07342  -0.0759  0.2002  1.0000  -3.5237   0.0000   0.0000   0.0000   0.2780
  14.000   1.5245   0.08468   0.07792  -0.0745  0.1926  1.0000  -3.6359   0.0000   0.0000   0.0000   0.2755
  15.500   0.8257   0.19599   0.19094  -0.1266  0.2175  1.0000  -1.1169   0.0000   0.0000   0.0000   0.3850
  16.000   0.8312   0.20187   0.19689  -0.1288  0.2080  1.0000  -1.0898   0.0000   0.0000   0.0000   0.3860
  16.500   0.8386   0.20761   0.20269  -0.1309  0.1973  1.0000  -1.0667   0.0000   0.0000   0.0000   0.3863
  17.000   0.8503   0.21394   0.20908  -0.1326  0.1908  1.0000  -1.1073   0.0000   0.0000   0.0000   0.3853
  17.500   0.8628   0.21982   0.21503  -0.1342  0.1825  1.0000  -1.1669   0.0000   0.0000   0.0000   0.3840
  18.000   0.8590   0.22607   0.22135  -0.1379  0.1755  1.0000  -1.1465   0.0000   0.0000   0.0000   0.3885
  18.500   0.8853   0.23348   0.22888  -0.1380  0.1710  1.0000  -1.2647   0.0000   0.0000   0.0000   0.3826
  19.000   0.8736   0.23870   0.23418  -0.1428  0.1638  1.0000  -1.2022   0.0000   0.0000   0.0000   0.3896
  19.500   0.8824   0.24532   0.24086  -0.1449  0.1584  1.0000  -1.2344   0.0000   0.0000   0.0000   0.3895
  20.000   0.8971   0.25154   0.24717  -0.1462  0.1502  1.0000  -1.2963   0.0000   0.0000   0.0000   0.3871


