xflr5 v6.61

 Calculated polar for: E63_7_00

 1 1 Reynolds number fixed          Mach number fixed         

 xtrf =   1.000 (top)        1.000 (bottom)
 Mach =   0.200     Re =     0.090 e 6     Ncrit =   7.000

  alpha     CL        CD       CDp       Cm    Top Xtr Bot Xtr   Cpmin    Chinge    XCp    
 ------- -------- --------- --------- -------- ------- ------- -------- --------- ---------
 -13.000  -0.4103   0.16914   0.16320  -0.0208  1.0000  0.0380  -1.4213   0.0000   0.0000   0.0000   0.1920
 -12.500  -0.3963   0.16230   0.15639  -0.0208  1.0000  0.0395  -1.3549   0.0000   0.0000   0.0000   0.1902
 -12.000  -0.3852   0.15664   0.15077  -0.0215  1.0000  0.0412  -1.3333   0.0000   0.0000   0.0000   0.1871
 -11.500  -0.3755   0.15120   0.14540  -0.0224  1.0000  0.0431  -1.3296   0.0000   0.0000   0.0000   0.1836
 -11.000  -0.3683   0.14645   0.14072  -0.0237  1.0000  0.0450  -1.3594   0.0000   0.0000   0.0000   0.1792
 -10.500  -0.3683   0.14353   0.13789  -0.0257  1.0000  0.0458  -1.4449   0.0000   0.0000   0.0000   0.1741
 -10.000  -0.3731   0.14108   0.13557  -0.0276  1.0000  0.0461  -1.5385   0.0000   0.0000   0.0000   0.1707
  -9.500  -0.3454   0.12967   0.12418  -0.0243  1.0000  0.0483  -1.3257   0.0000   0.0000   0.0000   0.1739
  -9.000  -0.3382   0.12446   0.11900  -0.0238  1.0000  0.0505  -1.2876   0.0000   0.0000   0.0000   0.1742
  -8.500  -0.3345   0.11974   0.11438  -0.0235  1.0000  0.0531  -1.2872   0.0000   0.0000   0.0000   0.1747
  -8.000  -0.3404   0.11669   0.11147  -0.0238  1.0000  0.0552  -1.3828   0.0000   0.0000   0.0000   0.1753
  -7.500  -0.3582   0.11505   0.11001  -0.0234  1.0000  0.0558  -1.5119   0.0000   0.0000   0.0000   0.1809
  -7.000  -0.3351   0.10617   0.10118  -0.0197  1.0000  0.0596  -1.3648   0.0000   0.0000   0.0000   0.1873
  -6.500  -0.3438   0.10275   0.09791  -0.0170  1.0000  0.0632  -1.3963   0.0000   0.0000   0.0000   0.1971
  -6.000  -0.3628   0.10065   0.09600  -0.0171  1.0000  0.0654  -1.5212   0.0000   0.0000   0.0000   0.2001
  -5.500  -0.3590   0.09469   0.09016  -0.0152  1.0000  0.0673  -1.5098   0.0000   0.0000   0.0000   0.2049
  -5.000  -0.3525   0.08965   0.08522  -0.0144  1.0000  0.0713  -1.4865   0.0000   0.0000   0.0000   0.2067
  -4.500  -0.3271   0.08321   0.07885  -0.0283  1.0000  0.0762  -1.6372   0.0000   0.0000   0.0000   0.1611
  -4.000  -0.3168   0.07766   0.07338  -0.0238  1.0000  0.0800  -1.5412   0.0000   0.0000   0.0000   0.1725
  -3.500  -0.2666   0.06964   0.06531  -0.0380  1.0000  0.0880  -1.5972   0.0000   0.0000   0.0000   0.1048
  -2.500   0.0498   0.02852   0.02284  -0.1032  0.9773  0.0541  -1.9076   0.0000   0.0000   0.0000   2.3330
  -2.000   0.1805   0.01757   0.01023  -0.1215  0.9760  0.0520  -1.8849   0.0000   0.0000   0.0000   0.9262
  -1.500   0.2494   0.02568   0.01695  -0.1283  0.9883  0.0561  -1.9044   0.0000   0.0000   0.0000   0.7666
  -1.000   0.3390   0.02396   0.01514  -0.1348  0.9799  0.0928  -1.6306   0.0000   0.0000   0.0000   0.6487
  -0.500   0.4251   0.02333   0.01491  -0.1413  0.9667  0.2327  -1.1873   0.0000   0.0000   0.0000   0.5827
   0.000   0.5100   0.02252   0.01489  -0.1471  0.9531  0.5077  -0.7681   0.0000   0.0000   0.0000   0.5380
   1.000   0.6538   0.02124   0.01386  -0.1513  0.9128  1.0000  -0.7234   0.0000   0.0000   0.0000   0.4798
   1.500   0.7329   0.02085   0.01327  -0.1548  0.8913  1.0000  -0.8137   0.0000   0.0000   0.0000   0.4590
   2.000   0.8134   0.02004   0.01239  -0.1578  0.8688  1.0000  -0.9248   0.0000   0.0000   0.0000   0.4413
   2.500   0.8885   0.01910   0.01148  -0.1594  0.8420  1.0000  -1.0411   0.0000   0.0000   0.0000   0.4262
   3.000   0.9676   0.01802   0.01046  -0.1614  0.8099  1.0000  -1.1804   0.0000   0.0000   0.0000   0.4131
   3.500   1.0524   0.01709   0.00959  -0.1645  0.7629  1.0000  -1.3446   0.0000   0.0000   0.0000   0.4020
   4.000   1.1337   0.01675   0.00916  -0.1671  0.6920  1.0000  -1.5565   0.0000   0.0000   0.0000   0.3925
   4.500   1.1960   0.01733   0.00940  -0.1664  0.6026  1.0000  -1.7610   0.0000   0.0000   0.0000   0.3837
   5.000   1.2441   0.01849   0.01025  -0.1636  0.5147  1.0000  -1.9769   0.0000   0.0000   0.0000   0.3754
   5.500   1.2857   0.01997   0.01138  -0.1599  0.4356  1.0000  -2.2730   0.0000   0.0000   0.0000   0.3676
   6.000   1.3245   0.02165   0.01277  -0.1560  0.3671  1.0000  -2.5819   0.0000   0.0000   0.0000   0.3604
   6.500   1.3596   0.02344   0.01433  -0.1518  0.3032  1.0000  -2.9308   0.0000   0.0000   0.0000   0.3536
   7.000   1.3916   0.02533   0.01613  -0.1472  0.2457  1.0000  -3.2813   0.0000   0.0000   0.0000   0.3470
   7.500   1.4235   0.02727   0.01803  -0.1428  0.1973  1.0000  -3.6396   0.0000   0.0000   0.0000   0.3409
   8.000   1.4535   0.02939   0.02023  -0.1382  0.1620  1.0000  -3.9920   0.0000   0.0000   0.0000   0.3349
   8.500   1.4790   0.03181   0.02277  -0.1330  0.1297  1.0000  -4.3220   0.0000   0.0000   0.0000   0.3290
   9.000   1.4978   0.03480   0.02590  -0.1271  0.0985  1.0000  -4.6043   0.0000   0.0000   0.0000   0.3232
   9.500   1.5091   0.03871   0.02996  -0.1205  0.0729  1.0000  -4.8114   0.0000   0.0000   0.0000   0.3174
  10.000   1.5163   0.04340   0.03492  -0.1140  0.0589  1.0000  -4.9658   0.0000   0.0000   0.0000   0.3120
  10.500   1.5274   0.04867   0.04055  -0.1086  0.0512  1.0000  -5.1192   0.0000   0.0000   0.0000   0.3071
  11.000   1.5346   0.05421   0.04640  -0.1038  0.0458  1.0000  -5.3523   0.0000   0.0000   0.0000   0.3028
  11.500   1.5353   0.06052   0.05333  -0.0994  0.0416  1.0000  -5.5288   0.0000   0.0000   0.0000   0.2990
  12.000   1.5304   0.06786   0.06116  -0.0959  0.0397  1.0000  -5.6683   0.0000   0.0000   0.0000   0.2961
  12.500   1.5167   0.07659   0.07035  -0.0938  0.0386  1.0000  -5.7474   0.0000   0.0000   0.0000   0.2945
  13.000   1.4910   0.08735   0.08162  -0.0940  0.0380  1.0000  -5.7233   0.0000   0.0000   0.0000   0.2947
  13.500   1.4541   0.10017   0.09503  -0.0979  0.0379  1.0000  -5.5993   0.0000   0.0000   0.0000   0.2982
  14.500   1.3053   0.15508   0.15116  -0.1378  0.0415  1.0000  -4.2263   0.0000   0.0000   0.0000   0.3357
  15.000   1.2607   0.18492   0.18079  -0.1576  0.0435  1.0000  -3.3568   0.0000   0.0000   0.0000   0.3554
  15.500   1.2560   0.20050   0.19631  -0.1674  0.0440  1.0000  -3.0601   0.0000   0.0000   0.0000   0.3633
  16.000   1.2598   0.21325   0.20903  -0.1753  0.0448  1.0000  -2.8727   0.0000   0.0000   0.0000   0.3685
  16.500   1.2692   0.22405   0.21983  -0.1816  0.0459  1.0000  -2.7669   0.0000   0.0000   0.0000   0.3718


