xflr5 v6.61

 Calculated polar for: E63_7_00

 1 1 Reynolds number fixed          Mach number fixed         

 xtrf =   1.000 (top)        1.000 (bottom)
 Mach =   0.200     Re =     0.050 e 6     Ncrit =   9.000

  alpha     CL        CD       CDp       Cm    Top Xtr Bot Xtr   Cpmin    Chinge    XCp    
 ------- -------- --------- --------- -------- ------- ------- -------- --------- ---------
 -18.000  -0.5410   0.22805   0.21972  -0.0029  1.0000  0.0573  -1.2906   0.0000   0.0000   0.0000   0.2349
 -17.500  -0.5252   0.22168   0.21332  -0.0048  1.0000  0.0597  -1.2411   0.0000   0.0000   0.0000   0.2315
 -17.000  -0.5107   0.21624   0.20791  -0.0070  1.0000  0.0624  -1.2279   0.0000   0.0000   0.0000   0.2271
 -16.500  -0.4980   0.21191   0.20363  -0.0097  1.0000  0.0648  -1.2568   0.0000   0.0000   0.0000   0.2218
 -16.000  -0.4902   0.21026   0.20205  -0.0130  1.0000  0.0657  -1.3237   0.0000   0.0000   0.0000   0.2152
 -15.500  -0.4702   0.19994   0.19177  -0.0134  1.0000  0.0680  -1.2644   0.0000   0.0000   0.0000   0.2132
 -15.000  -0.4559   0.19400   0.18587  -0.0148  1.0000  0.0713  -1.2518   0.0000   0.0000   0.0000   0.2094
 -14.500  -0.4449   0.18957   0.18149  -0.0169  1.0000  0.0745  -1.2745   0.0000   0.0000   0.0000   0.2041
 -14.000  -0.4418   0.18847   0.18049  -0.0199  1.0000  0.0757  -1.3483   0.0000   0.0000   0.0000   0.1976
 -13.500  -0.4195   0.17750   0.16950  -0.0195  1.0000  0.0789  -1.2649   0.0000   0.0000   0.0000   0.1961
 -13.000  -0.4077   0.17199   0.16405  -0.0206  1.0000  0.0832  -1.2545   0.0000   0.0000   0.0000   0.1923
 -12.500  -0.4045   0.16961   0.16177  -0.0229  1.0000  0.0861  -1.3074   0.0000   0.0000   0.0000   0.1866
 -12.000  -0.3869   0.16095   0.15317  -0.0226  1.0000  0.0901  -1.2455   0.0000   0.0000   0.0000   0.1848
 -11.500  -0.3790   0.15632   0.14863  -0.0236  1.0000  0.0956  -1.2464   0.0000   0.0000   0.0000   0.1812
 -11.000  -0.3728   0.15139   0.14381  -0.0246  1.0000  0.0983  -1.2571   0.0000   0.0000   0.0000   0.1778
 -10.500  -0.3598   0.14489   0.13738  -0.0243  1.0000  0.1043  -1.2098   0.0000   0.0000   0.0000   0.1764
 -10.000  -0.3653   0.14334   0.13598  -0.0259  1.0000  0.1076  -1.2705   0.0000   0.0000   0.0000   0.1735
  -9.750  -0.3507   0.13729   0.12996  -0.0248  1.0000  0.1102  -1.2045   0.0000   0.0000   0.0000   0.1736
  -9.500  -0.3452   0.13430   0.12701  -0.0244  1.0000  0.1136  -1.1812   0.0000   0.0000   0.0000   0.1736
  -9.000  -0.3514   0.13224   0.12512  -0.0253  1.0000  0.1184  -1.2437   0.0000   0.0000   0.0000   0.1730
  -8.750  -0.3404   0.12733   0.12019  -0.0243  1.0000  0.1208  -1.2171   0.0000   0.0000   0.0000   0.1735
  -8.500  -0.3352   0.12438   0.11728  -0.0236  1.0000  0.1247  -1.2091   0.0000   0.0000   0.0000   0.1745
  -8.250  -0.3380   0.12301   0.11600  -0.0236  1.0000  0.1281  -1.2356   0.0000   0.0000   0.0000   0.1755
  -8.000  -0.3488   0.12310   0.11622  -0.0237  1.0000  0.1294  -1.2887   0.0000   0.0000   0.0000   0.1777
  -7.750  -0.3326   0.11745   0.11059  -0.0222  1.0000  0.1333  -1.2424   0.0000   0.0000   0.0000   0.1788
  -7.500  -0.3332   0.11549   0.10870  -0.0214  1.0000  0.1375  -1.2527   0.0000   0.0000   0.0000   0.1813
  -7.250  -0.3450   0.11534   0.10868  -0.0208  1.0000  0.1399  -1.2986   0.0000   0.0000   0.0000   0.1857
  -7.000  -0.3372   0.11133   0.10473  -0.0196  1.0000  0.1429  -1.2819   0.0000   0.0000   0.0000   0.1880
  -6.500  -0.3506   0.10879   0.10240  -0.0167  1.0000  0.1504  -1.3212   0.0000   0.0000   0.0000   0.1990
  -6.000  -0.3477   0.10331   0.09708  -0.0138  1.0000  0.1580  -1.3161   0.0000   0.0000   0.0000   0.2071
  -5.750  -0.3572   0.10276   0.09665  -0.0153  1.0000  0.1618  -1.3651   0.0000   0.0000   0.0000   0.2044
  -5.500  -0.3498   0.09885   0.09280  -0.0127  1.0000  0.1661  -1.3379   0.0000   0.0000   0.0000   0.2108
  -5.250  -0.3520   0.09729   0.09133  -0.0140  1.0000  0.1722  -1.3636   0.0000   0.0000   0.0000   0.2075
  -5.000  -0.3478   0.09413   0.08824  -0.0127  1.0000  0.1764  -1.3553   0.0000   0.0000   0.0000   0.2108
  -4.750  -0.3457   0.09252   0.08671  -0.0166  1.0000  0.1840  -1.3891   0.0000   0.0000   0.0000   0.1995
  -4.500  -0.3402   0.08905   0.08331  -0.0130  1.0000  0.1912  -1.3554   0.0000   0.0000   0.0000   0.2094
  -4.250  -0.3349   0.08636   0.08069  -0.0136  1.0000  0.1997  -1.3549   0.0000   0.0000   0.0000   0.2070
  -4.000  -0.3279   0.08368   0.07806  -0.0145  1.0000  0.2102  -1.3514   0.0000   0.0000   0.0000   0.2034
  -3.750  -0.3195   0.08094   0.07532  -0.0152  1.0000  0.2222  -1.3425   0.0000   0.0000   0.0000   0.2000
  -3.250  -0.2940   0.07526   0.06971  -0.0201  1.0000  0.2514  -1.3281   0.0000   0.0000   0.0000   0.1794
  -3.000  -0.2829   0.07234   0.06684  -0.0197  1.0000  0.2652  -1.3052   0.0000   0.0000   0.0000   0.1780
  -2.750  -0.2642   0.06937   0.06389  -0.0228  1.0000  0.2847  -1.2889   0.0000   0.0000   0.0000   0.1610
  -2.500  -0.2464   0.06648   0.06101  -0.0246  1.0000  0.3064  -1.2643   0.0000   0.0000   0.0000   0.1475
  -1.750   0.0753   0.04017   0.03233  -0.1017  1.0000  0.1298  -1.5515   0.0000   0.0000   0.0000   1.6079
  -1.500   0.1316   0.03640   0.02802  -0.1088  1.0000  0.1251  -1.5491   0.0000   0.0000   0.0000   1.0799
  -1.250   0.1895   0.03328   0.02403  -0.1154  1.0000  0.1312  -1.5678   0.0000   0.0000   0.0000   0.8611
  -1.000   0.2247   0.03230   0.02288  -0.1176  1.0000  0.1637  -1.4973   0.0000   0.0000   0.0000   0.7746
  -0.750   0.2629   0.03104   0.02142  -0.1198  1.0000  0.1987  -1.4465   0.0000   0.0000   0.0000   0.7066
  -0.500   0.3008   0.03003   0.02016  -0.1218  1.0000  0.2371  -1.3606   0.0000   0.0000   0.0000   0.6553
  -0.250   0.3328   0.02948   0.01957  -0.1227  1.0000  0.2947  -1.2374   0.0000   0.0000   0.0000   0.6186
   0.000   0.3635   0.02900   0.01929  -0.1232  1.0000  0.3852  -1.0974   0.0000   0.0000   0.0000   0.5887
   0.250   0.3960   0.02825   0.01920  -0.1237  1.0000  0.5524  -0.9454   0.0000   0.0000   0.0000   0.5618
   0.500   0.4017   0.02706   0.01888  -0.1193  1.0000  1.0000  -0.8922   0.0000   0.0000   0.0000   0.5461
   0.750   0.4278   0.02795   0.01918  -0.1202  1.0000  1.0000  -0.7701   0.0000   0.0000   0.0000   0.5298
   1.000   0.4497   0.02890   0.01982  -0.1204  1.0000  1.0000  -0.6516   0.0000   0.0000   0.0000   0.5162
   1.250   0.4702   0.02994   0.02064  -0.1205  1.0000  1.0000  -0.5926   0.0000   0.0000   0.0000   0.5044
   1.500   0.4896   0.03107   0.02159  -0.1205  1.0000  1.0000  -0.6137   0.0000   0.0000   0.0000   0.4941
   1.750   0.5079   0.03231   0.02270  -0.1206  1.0000  1.0000  -0.6350   0.0000   0.0000   0.0000   0.4851
   2.000   0.5254   0.03366   0.02396  -0.1207  1.0000  1.0000  -0.6553   0.0000   0.0000   0.0000   0.4772
   2.250   0.5781   0.03539   0.02556  -0.1271  0.9807  1.0000  -0.7042   0.0000   0.0000   0.0000   0.4670
   2.500   0.6310   0.03655   0.02664  -0.1329  0.9580  1.0000  -0.7602   0.0000   0.0000   0.0000   0.4575
   2.750   0.6819   0.03735   0.02740  -0.1378  0.9351  1.0000  -0.8200   0.0000   0.0000   0.0000   0.4488
   3.000   0.7341   0.03785   0.02790  -0.1425  0.9126  1.0000  -0.8865   0.0000   0.0000   0.0000   0.4405
   3.250   0.7874   0.03802   0.02813  -0.1467  0.8900  1.0000  -0.9561   0.0000   0.0000   0.0000   0.4325
   3.500   0.8373   0.03793   0.02810  -0.1500  0.8663  1.0000  -1.0294   0.0000   0.0000   0.0000   0.4250
   3.750   0.8834   0.03765   0.02794  -0.1522  0.8414  1.0000  -1.1047   0.0000   0.0000   0.0000   0.4179
   4.000   0.9359   0.03684   0.02731  -0.1546  0.8174  1.0000  -1.1936   0.0000   0.0000   0.0000   0.4106
   4.250   0.9936   0.03533   0.02598  -0.1569  0.7941  1.0000  -1.2967   0.0000   0.0000   0.0000   0.4030
   4.500   1.0592   0.03293   0.02380  -0.1593  0.7708  1.0000  -1.4416   0.0000   0.0000   0.0000   0.3953
   4.750   1.1191   0.03085   0.02199  -0.1610  0.7405  1.0000  -1.5945   0.0000   0.0000   0.0000   0.3884
   5.000   1.1839   0.02859   0.01989  -0.1630  0.7035  1.0000  -1.7612   0.0000   0.0000   0.0000   0.3819
   5.250   1.2334   0.02751   0.01891  -0.1632  0.6567  1.0000  -1.9277   0.0000   0.0000   0.0000   0.3762
   5.500   1.2750   0.02726   0.01851  -0.1628  0.6061  1.0000  -2.1375   0.0000   0.0000   0.0000   0.3712
   5.750   1.3039   0.02785   0.01894  -0.1611  0.5570  1.0000  -2.3092   0.0000   0.0000   0.0000   0.3668
   6.000   1.3309   0.02874   0.01962  -0.1593  0.5110  1.0000  -2.4770   0.0000   0.0000   0.0000   0.3626
   6.250   1.3544   0.02990   0.02061  -0.1573  0.4687  1.0000  -2.6350   0.0000   0.0000   0.0000   0.3587
   6.500   1.3777   0.03119   0.02172  -0.1554  0.4301  1.0000  -2.8194   0.0000   0.0000   0.0000   0.3550
   6.750   1.3988   0.03265   0.02310  -0.1534  0.3949  1.0000  -2.9944   0.0000   0.0000   0.0000   0.3515
   7.000   1.4205   0.03424   0.02476  -0.1515  0.3631  1.0000  -3.1720   0.0000   0.0000   0.0000   0.3482
   7.250   1.4432   0.03592   0.02636  -0.1498  0.3340  1.0000  -3.3540   0.0000   0.0000   0.0000   0.3450
   7.500   1.4605   0.03772   0.02827  -0.1475  0.3069  1.0000  -3.5109   0.0000   0.0000   0.0000   0.3418
   7.750   1.4793   0.03943   0.02993  -0.1453  0.2805  1.0000  -3.6797   0.0000   0.0000   0.0000   0.3386
   8.000   1.4944   0.04118   0.03170  -0.1427  0.2552  1.0000  -3.8318   0.0000   0.0000   0.0000   0.3355
   8.250   1.5053   0.04286   0.03347  -0.1395  0.2303  1.0000  -3.9675   0.0000   0.0000   0.0000   0.3323
   8.500   1.5173   0.04477   0.03542  -0.1365  0.2071  1.0000  -4.0983   0.0000   0.0000   0.0000   0.3293
   8.750   1.5256   0.04647   0.03714  -0.1332  0.1844  1.0000  -4.2192   0.0000   0.0000   0.0000   0.3262
   9.000   1.5309   0.04838   0.03913  -0.1296  0.1641  1.0000  -4.3183   0.0000   0.0000   0.0000   0.3232
   9.250   1.5435   0.05143   0.04228  -0.1270  0.1477  1.0000  -4.3972   0.0000   0.0000   0.0000   0.3205
   9.500   1.5464   0.05441   0.04558  -0.1233  0.1340  1.0000  -4.4373   0.0000   0.0000   0.0000   0.3176
   9.750   1.5506   0.05803   0.04949  -0.1200  0.1237  1.0000  -4.4605   0.0000   0.0000   0.0000   0.3149
  10.000   1.5565   0.06198   0.05377  -0.1172  0.1161  1.0000  -4.4845   0.0000   0.0000   0.0000   0.3124
  10.250   1.5452   0.06635   0.05869  -0.1128  0.1126  1.0000  -4.4414   0.0000   0.0000   0.0000   0.3099
  10.500   1.5566   0.07050   0.06287  -0.1111  0.1072  1.0000  -4.5196   0.0000   0.0000   0.0000   0.3079
  10.750   1.5347   0.07481   0.06765  -0.1063  0.1066  1.0000  -4.4642   0.0000   0.0000   0.0000   0.3055
  11.000   1.5107   0.07921   0.07242  -0.1020  0.1063  1.0000  -4.4060   0.0000   0.0000   0.0000   0.3034
  11.250   1.4850   0.08402   0.07756  -0.0987  0.1062  1.0000  -4.3404   0.0000   0.0000   0.0000   0.3021
  11.500   1.4580   0.08935   0.08318  -0.0967  0.1065  1.0000  -4.2661   0.0000   0.0000   0.0000   0.3016
  11.750   1.4308   0.09528   0.08935  -0.0961  0.1068  1.0000  -4.1841   0.0000   0.0000   0.0000   0.3021
  12.000   1.4043   0.10187   0.09613  -0.0969  0.1072  1.0000  -4.0948   0.0000   0.0000   0.0000   0.3036
  12.500   1.2440   0.14208   0.13651  -0.1275  0.1315  1.0000  -3.1399   0.0000   0.0000   0.0000   0.3373
  12.750   1.2447   0.14761   0.14204  -0.1290  0.1276  1.0000  -3.1101   0.0000   0.0000   0.0000   0.3382
  13.000   1.2330   0.15727   0.15166  -0.1348  0.1287  1.0000  -2.9580   0.0000   0.0000   0.0000   0.3437
  13.500   1.2082   0.17733   0.17157  -0.1484  0.1377  1.0000  -2.5988   0.0000   0.0000   0.0000   0.3569
  14.750   1.1953   0.21739   0.21156  -0.1768  0.2152  1.0000  -1.9605   0.0000   0.0000   0.0000   0.3811
  15.000   1.1986   0.22158   0.21574  -0.1795  0.2121  1.0000  -1.9252   0.0000   0.0000   0.0000   0.3825


