xflr5 v6.61

 Calculated polar for: E63_8_00

 1 1 Reynolds number fixed          Mach number fixed         

 xtrf =   1.000 (top)        1.000 (bottom)
 Mach =   0.200     Re =     0.050 e 6     Ncrit =   7.000

  alpha     CL        CD       CDp       Cm    Top Xtr Bot Xtr   Cpmin    Chinge    XCp    
 ------- -------- --------- --------- -------- ------- ------- -------- --------- ---------
 -20.500  -0.6002   0.25442   0.24584   0.0080  1.0000  0.0472  -1.3746   0.0000   0.0000   0.0000   0.2493
 -20.000  -0.5841   0.24814   0.23956   0.0056  1.0000  0.0489  -1.3245   0.0000   0.0000   0.0000   0.2460
 -19.500  -0.5687   0.24261   0.23405   0.0030  1.0000  0.0508  -1.2914   0.0000   0.0000   0.0000   0.2421
 -19.000  -0.5537   0.23735   0.22881   0.0003  1.0000  0.0528  -1.2972   0.0000   0.0000   0.0000   0.2377
 -18.500  -0.5395   0.23277   0.22426  -0.0027  1.0000  0.0547  -1.3201   0.0000   0.0000   0.0000   0.2327
 -18.000  -0.5278   0.22974   0.22128  -0.0061  1.0000  0.0556  -1.3679   0.0000   0.0000   0.0000   0.2266
 -17.500  -0.5146   0.22452   0.21613  -0.0086  1.0000  0.0561  -1.3863   0.0000   0.0000   0.0000   0.2217
 -17.000  -0.4956   0.21558   0.20716  -0.0095  1.0000  0.0582  -1.3192   0.0000   0.0000   0.0000   0.2195
 -16.500  -0.4807   0.20981   0.20142  -0.0113  1.0000  0.0606  -1.2998   0.0000   0.0000   0.0000   0.2154
 -16.000  -0.4671   0.20458   0.19624  -0.0134  1.0000  0.0632  -1.2979   0.0000   0.0000   0.0000   0.2106
 -15.500  -0.4569   0.20095   0.19266  -0.0161  1.0000  0.0653  -1.3309   0.0000   0.0000   0.0000   0.2044
 -15.000  -0.4444   0.19507   0.18687  -0.0179  1.0000  0.0665  -1.3284   0.0000   0.0000   0.0000   0.1997
 -14.500  -0.4276   0.18786   0.17970  -0.0184  1.0000  0.0702  -1.2658   0.0000   0.0000   0.0000   0.1970
 -14.000  -0.4165   0.18305   0.17494  -0.0201  1.0000  0.0740  -1.2639   0.0000   0.0000   0.0000   0.1920
 -13.500  -0.4135   0.18105   0.17299  -0.0229  1.0000  0.0756  -1.3202   0.0000   0.0000   0.0000   0.1855
 -13.000  -0.3937   0.17167   0.16367  -0.0226  1.0000  0.0781  -1.2388   0.0000   0.0000   0.0000   0.1834
 -12.500  -0.3815   0.16589   0.15796  -0.0233  1.0000  0.0821  -1.2129   0.0000   0.0000   0.0000   0.1801
 -12.000  -0.3760   0.16198   0.15413  -0.0249  1.0000  0.0856  -1.2620   0.0000   0.0000   0.0000   0.1752
 -11.500  -0.3682   0.15647   0.14874  -0.0258  1.0000  0.0873  -1.2917   0.0000   0.0000   0.0000   0.1716
 -11.000  -0.3534   0.14956   0.14189  -0.0253  1.0000  0.0919  -1.2615   0.0000   0.0000   0.0000   0.1701
 -10.500  -0.3506   0.14567   0.13812  -0.0264  1.0000  0.0962  -1.3107   0.0000   0.0000   0.0000   0.1669
 -10.000  -0.3432   0.13983   0.13240  -0.0265  1.0000  0.0985  -1.3288   0.0000   0.0000   0.0000   0.1652
  -9.500  -0.3327   0.13397   0.12663  -0.0258  1.0000  0.1040  -1.3154   0.0000   0.0000   0.0000   0.1651
  -9.000  -0.3413   0.13181   0.12464  -0.0269  1.0000  0.1076  -1.4012   0.0000   0.0000   0.0000   0.1648
  -8.500  -0.3241   0.12392   0.11679  -0.0249  1.0000  0.1123  -1.3499   0.0000   0.0000   0.0000   0.1667
  -8.000  -0.3320   0.12109   0.11414  -0.0247  1.0000  0.1181  -1.4077   0.0000   0.0000   0.0000   0.1700
  -7.500  -0.3225   0.11489   0.10807  -0.0225  1.0000  0.1253  -1.3751   0.0000   0.0000   0.0000   0.1749
  -7.000  -0.3479   0.11399   0.10743  -0.0209  1.0000  0.1294  -1.4703   0.0000   0.0000   0.0000   0.1854
  -6.500  -0.3412   0.10806   0.10164  -0.0177  1.0000  0.1391  -1.4309   0.0000   0.0000   0.0000   0.1940
  -6.000  -0.3431   0.10322   0.09697  -0.0145  1.0000  0.1453  -1.4231   0.0000   0.0000   0.0000   0.2039
  -5.500  -0.3534   0.09977   0.09374  -0.0155  1.0000  0.1520  -1.4800   0.0000   0.0000   0.0000   0.2027
  -5.000  -0.3490   0.09478   0.08888  -0.0157  1.0000  0.1615  -1.4768   0.0000   0.0000   0.0000   0.2019
  -4.500  -0.3399   0.08903   0.08326  -0.0146  1.0000  0.1698  -1.4497   0.0000   0.0000   0.0000   0.2041
  -4.000  -0.3258   0.08339   0.07773  -0.0175  1.0000  0.1807  -1.4418   0.0000   0.0000   0.0000   0.1936
  -3.500  -0.2958   0.07703   0.07141  -0.0264  1.0000  0.1959  -1.4415   0.0000   0.0000   0.0000   0.1579
  -2.500  -0.0569   0.04545   0.03825  -0.0858  1.0000  0.0822  -1.9080   0.0000   0.0000   0.0000  -1.2703
  -2.000   0.0822   0.03470   0.02566  -0.1084  1.0000  0.0882  -2.0002   0.0000   0.0000   0.0000   1.5782
  -1.500   0.1480   0.03297   0.02350  -0.1125  1.0000  0.1315  -1.7818   0.0000   0.0000   0.0000   1.0137
  -1.000   0.2157   0.03110   0.02107  -0.1157  1.0000  0.1673  -1.5657   0.0000   0.0000   0.0000   0.7882
  -0.500   0.2739   0.03058   0.02036  -0.1173  1.0000  0.2241  -1.3226   0.0000   0.0000   0.0000   0.6787
   0.000   0.3293   0.03069   0.02061  -0.1186  0.9990  0.3217  -1.0799   0.0000   0.0000   0.0000   0.6097
   0.500   0.4233   0.03047   0.02142  -0.1260  0.9805  0.5957  -0.7262   0.0000   0.0000   0.0000   0.5465
   1.000   0.4995   0.03041   0.02139  -0.1299  0.9515  1.0000  -0.6495   0.0000   0.0000   0.0000   0.5084
   1.500   0.5881   0.03122   0.02168  -0.1365  0.9217  1.0000  -0.7355   0.0000   0.0000   0.0000   0.4798
   2.000   0.6738   0.03156   0.02175  -0.1417  0.8902  1.0000  -0.8305   0.0000   0.0000   0.0000   0.4574
   2.500   0.7594   0.03136   0.02144  -0.1459  0.8574  1.0000  -0.9420   0.0000   0.0000   0.0000   0.4387
   3.000   0.8386   0.03076   0.02088  -0.1481  0.8206  1.0000  -1.0602   0.0000   0.0000   0.0000   0.4227
   3.500   0.9249   0.02935   0.01956  -0.1502  0.7849  1.0000  -1.2006   0.0000   0.0000   0.0000   0.4080
   4.000   1.0136   0.02764   0.01802  -0.1520  0.7429  1.0000  -1.3615   0.0000   0.0000   0.0000   0.3950
   4.500   1.1035   0.02616   0.01665  -0.1538  0.6878  1.0000  -1.5401   0.0000   0.0000   0.0000   0.3838
   5.000   1.1803   0.02578   0.01612  -0.1540  0.6183  1.0000  -1.7601   0.0000   0.0000   0.0000   0.3742
   5.500   1.2375   0.02667   0.01685  -0.1518  0.5440  1.0000  -1.9549   0.0000   0.0000   0.0000   0.3658
   6.000   1.2885   0.02817   0.01806  -0.1492  0.4758  1.0000  -2.1415   0.0000   0.0000   0.0000   0.3582
   6.500   1.3331   0.03014   0.01986  -0.1460  0.4157  1.0000  -2.3920   0.0000   0.0000   0.0000   0.3513
   7.000   1.3778   0.03239   0.02196  -0.1432  0.3642  1.0000  -2.6875   0.0000   0.0000   0.0000   0.3450
   7.500   1.4196   0.03492   0.02464  -0.1400  0.3195  1.0000  -2.9803   0.0000   0.0000   0.0000   0.3390
   8.000   1.4600   0.03773   0.02753  -0.1368  0.2812  1.0000  -3.2855   0.0000   0.0000   0.0000   0.3333
   8.500   1.4983   0.04089   0.03087  -0.1335  0.2484  1.0000  -3.6177   0.0000   0.0000   0.0000   0.3280
   9.000   1.5270   0.04422   0.03446  -0.1289  0.2180  1.0000  -3.9187   0.0000   0.0000   0.0000   0.3225
   9.500   1.5474   0.04744   0.03789  -0.1234  0.1899  1.0000  -4.1986   0.0000   0.0000   0.0000   0.3171
  10.000   1.5548   0.05094   0.04184  -0.1165  0.1651  1.0000  -4.4231   0.0000   0.0000   0.0000   0.3115
  10.500   1.5553   0.05495   0.04619  -0.1093  0.1451  1.0000  -4.6085   0.0000   0.0000   0.0000   0.3060
  11.000   1.5495   0.05901   0.05045  -0.1023  0.1274  1.0000  -4.7773   0.0000   0.0000   0.0000   0.3010
  11.500   1.5350   0.06545   0.05748  -0.0961  0.1150  1.0000  -4.8487   0.0000   0.0000   0.0000   0.2968
  12.000   1.5180   0.07298   0.06549  -0.0917  0.1055  1.0000  -4.8897   0.0000   0.0000   0.0000   0.2937
  12.500   1.4967   0.08085   0.07369  -0.0890  0.0968  1.0000  -4.9237   0.0000   0.0000   0.0000   0.2919
  13.000   1.4408   0.09453   0.08809  -0.0908  0.0954  1.0000  -4.7282   0.0000   0.0000   0.0000   0.2947
  13.500   1.3799   0.11219   0.10623  -0.0990  0.0961  1.0000  -4.4495   0.0000   0.0000   0.0000   0.3027
  14.500   1.2292   0.17462   0.16857  -0.1419  0.1056  1.0000  -3.0649   0.0000   0.0000   0.0000   0.3466
  15.000   1.2284   0.18554   0.17949  -0.1484  0.0955  1.0000  -2.9762   0.0000   0.0000   0.0000   0.3513
  15.500   1.2217   0.20022   0.19412  -0.1582  0.0924  1.0000  -2.7285   0.0000   0.0000   0.0000   0.3595
  16.000   1.2265   0.21162   0.20552  -0.1652  0.0898  1.0000  -2.5888   0.0000   0.0000   0.0000   0.3640
  16.500   1.2308   0.22330   0.21717  -0.1729  0.0911  1.0000  -2.4197   0.0000   0.0000   0.0000   0.3692
  17.000   1.2426   0.23393   0.22782  -0.1787  0.0957  1.0000  -2.3199   0.0000   0.0000   0.0000   0.3718
  17.500   1.2439   0.25009   0.24401  -0.1911  0.1422  1.0000  -1.9977   0.0000   0.0000   0.0000   0.3814
  18.000   1.2647   0.25929   0.25337  -0.1943  0.1395  1.0000  -2.0395   0.0000   0.0000   0.0000   0.3804
  18.500   1.2752   0.26653   0.26061  -0.2004  0.1378  1.0000  -2.0023   0.0000   0.0000   0.0000   0.3830
  19.000   1.2883   0.27279   0.26690  -0.2056  0.1305  1.0000  -1.9951   0.0000   0.0000   0.0000   0.3844
  19.500   1.3009   0.27932   0.27345  -0.2111  0.1238  1.0000  -1.9777   0.0000   0.0000   0.0000   0.3861
  20.000   1.3246   0.28918   0.28339  -0.2130  0.1176  1.0000  -2.0913   0.0000   0.0000   0.0000   0.3835


