xflr5 v6.61

 Calculated polar for: E63_4_27

 1 1 Reynolds number fixed          Mach number fixed         

 xtrf =   1.000 (top)        1.000 (bottom)
 Mach =   0.200     Re =     0.050 e 6     Ncrit =   9.000

  alpha     CL        CD       CDp       Cm    Top Xtr Bot Xtr   Cpmin    Chinge    XCp    
 ------- -------- --------- --------- -------- ------- ------- -------- --------- ---------
 -15.500  -0.5097   0.19971   0.19174  -0.0075  1.0000  0.0485  -1.2378   0.0000   0.0000   0.0000   0.2318
 -15.000  -0.4959   0.19377   0.18584  -0.0093  1.0000  0.0511  -1.2307   0.0000   0.0000   0.0000   0.2280
 -14.500  -0.4833   0.18860   0.18070  -0.0113  1.0000  0.0538  -1.2451   0.0000   0.0000   0.0000   0.2235
 -14.000  -0.4738   0.18535   0.17752  -0.0139  1.0000  0.0554  -1.2938   0.0000   0.0000   0.0000   0.2178
 -13.500  -0.4625   0.17960   0.17180  -0.0156  1.0000  0.0564  -1.3091   0.0000   0.0000   0.0000   0.2135
 -13.000  -0.4466   0.17126   0.16347  -0.0159  1.0000  0.0597  -1.2493   0.0000   0.0000   0.0000   0.2116
 -12.500  -0.4356   0.16596   0.15823  -0.0173  1.0000  0.0634  -1.2467   0.0000   0.0000   0.0000   0.2076
 -12.000  -0.4301   0.16322   0.15558  -0.0195  1.0000  0.0655  -1.2934   0.0000   0.0000   0.0000   0.2021
 -11.500  -0.4152   0.15486   0.14729  -0.0196  1.0000  0.0684  -1.2364   0.0000   0.0000   0.0000   0.2003
 -11.000  -0.4051   0.14943   0.14192  -0.0204  1.0000  0.0730  -1.2139   0.0000   0.0000   0.0000   0.1973
 -10.500  -0.4036   0.14736   0.13998  -0.0223  1.0000  0.0755  -1.2602   0.0000   0.0000   0.0000   0.1924
 -10.000  -0.3876   0.13851   0.13119  -0.0216  1.0000  0.0793  -1.1790   0.0000   0.0000   0.0000   0.1919
  -9.750  -0.3829   0.13578   0.12850  -0.0217  1.0000  0.0818  -1.1610   0.0000   0.0000   0.0000   0.1910
  -9.500  -0.3803   0.13368   0.12646  -0.0221  1.0000  0.0842  -1.1591   0.0000   0.0000   0.0000   0.1897
  -9.250  -0.3808   0.13262   0.12539  -0.0227  1.0000  0.0857  -1.1790   0.0000   0.0000   0.0000   0.1882
  -9.000  -0.3843   0.13231   0.12518  -0.0235  1.0000  0.0863  -1.2113   0.0000   0.0000   0.0000   0.1870
  -8.750  -0.3710   0.12604   0.11893  -0.0223  1.0000  0.0889  -1.1533   0.0000   0.0000   0.0000   0.1879
  -8.500  -0.3663   0.12315   0.11608  -0.0218  1.0000  0.0920  -1.1448   0.0000   0.0000   0.0000   0.1883
  -8.250  -0.3655   0.12128   0.11429  -0.0218  1.0000  0.0948  -1.1596   0.0000   0.0000   0.0000   0.1883
  -8.000  -0.3697   0.12066   0.11376  -0.0220  1.0000  0.0965  -1.1968   0.0000   0.0000   0.0000   0.1887
  -7.750  -0.3777   0.12070   0.11393  -0.0218  1.0000  0.0970  -1.2429   0.0000   0.0000   0.0000   0.1906
  -7.500  -0.3601   0.11395   0.10717  -0.0204  1.0000  0.1013  -1.1765   0.0000   0.0000   0.0000   0.1915
  -7.250  -0.3606   0.11205   0.10535  -0.0196  1.0000  0.1047  -1.1853   0.0000   0.0000   0.0000   0.1937
  -7.000  -0.3679   0.11146   0.10488  -0.0188  1.0000  0.1068  -1.2185   0.0000   0.0000   0.0000   0.1973
  -6.750  -0.3765   0.11144   0.10499  -0.0191  1.0000  0.1076  -1.2670   0.0000   0.0000   0.0000   0.1978
  -6.500  -0.3646   0.10584   0.09942  -0.0165  1.0000  0.1117  -1.2133   0.0000   0.0000   0.0000   0.2031
  -6.250  -0.3641   0.10382   0.09748  -0.0162  1.0000  0.1158  -1.2215   0.0000   0.0000   0.0000   0.2040
  -6.000  -0.3663   0.10316   0.09693  -0.0186  1.0000  0.1183  -1.2691   0.0000   0.0000   0.0000   0.1977
  -5.750  -0.3599   0.09893   0.09275  -0.0163  1.0000  0.1218  -1.2389   0.0000   0.0000   0.0000   0.2033
  -5.500  -0.3561   0.09662   0.09051  -0.0168  1.0000  0.1271  -1.2432   0.0000   0.0000   0.0000   0.2015
  -5.000  -0.3453   0.09115   0.08518  -0.0177  1.0000  0.1365  -1.2460   0.0000   0.0000   0.0000   0.1972
  -4.500  -0.3275   0.08583   0.07997  -0.0218  1.0000  0.1495  -1.2577   0.0000   0.0000   0.0000   0.1820
  -4.000  -0.3035   0.07967   0.07383  -0.0258  1.0000  0.1645  -1.2534   0.0000   0.0000   0.0000   0.1634
  -3.500  -0.2730   0.07341   0.06762  -0.0301  1.0000  0.1874  -1.2292   0.0000   0.0000   0.0000   0.1379
  -1.000   0.2608   0.03297   0.02417  -0.1234  1.0000  0.1278  -1.1849   0.0000   0.0000   0.0000   0.7243
  -0.750   0.3153   0.03046   0.02098  -0.1286  1.0000  0.1209  -1.2334   0.0000   0.0000   0.0000   0.6587
  -0.500   0.0126   0.03812   0.03252  -0.0490  1.0000  0.5948  -0.7902   0.0000   0.0000   0.0000   4.1780
   0.000   0.4358   0.02632   0.01549  -0.1341  1.0000  0.1480  -1.2792   0.0000   0.0000   0.0000   0.5576
   0.500   0.5047   0.02314   0.01373  -0.1353  1.0000  1.0000  -1.2377   0.0000   0.0000   0.0000   0.5174
   0.750   0.5290   0.02371   0.01390  -0.1351  1.0000  1.0000  -1.0145   0.0000   0.0000   0.0000   0.5044
   1.000   0.5524   0.02434   0.01424  -0.1348  1.0000  1.0000  -0.7871   0.0000   0.0000   0.0000   0.4929
   1.250   0.5751   0.02502   0.01468  -0.1346  1.0000  1.0000  -0.5668   0.0000   0.0000   0.0000   0.4826
   1.500   0.5971   0.02576   0.01527  -0.1343  1.0000  1.0000  -0.5723   0.0000   0.0000   0.0000   0.4733
   1.750   0.6184   0.02658   0.01597  -0.1340  1.0000  1.0000  -0.5972   0.0000   0.0000   0.0000   0.4649
   2.000   0.6389   0.02746   0.01679  -0.1338  1.0000  1.0000  -0.6229   0.0000   0.0000   0.0000   0.4573
   2.250   0.6588   0.02843   0.01773  -0.1335  1.0000  1.0000  -0.6521   0.0000   0.0000   0.0000   0.4504
   2.500   0.6778   0.02950   0.01880  -0.1333  1.0000  1.0000  -0.6839   0.0000   0.0000   0.0000   0.4441
   2.750   0.6960   0.03068   0.02000  -0.1331  1.0000  1.0000  -0.7157   0.0000   0.0000   0.0000   0.4385
   3.000   0.7133   0.03198   0.02135  -0.1330  1.0000  1.0000  -0.7465   0.0000   0.0000   0.0000   0.4335
   3.250   0.7297   0.03341   0.02286  -0.1330  1.0000  1.0000  -0.7803   0.0000   0.0000   0.0000   0.4290
   3.500   0.7450   0.03501   0.02456  -0.1331  1.0000  1.0000  -0.8139   0.0000   0.0000   0.0000   0.4251
   3.750   0.8036   0.03669   0.02650  -0.1408  0.9729  1.0000  -0.9017   0.0000   0.0000   0.0000   0.4215
   4.000   0.8625   0.03747   0.02755  -0.1474  0.9442  1.0000  -1.0265   0.0000   0.0000   0.0000   0.4169
   4.250   0.9214   0.03766   0.02814  -0.1531  0.9146  1.0000  -1.2177   0.0000   0.0000   0.0000   0.4119
   4.500   0.9823   0.03714   0.02803  -0.1579  0.8829  1.0000  -1.5223   0.0000   0.0000   0.0000   0.4062
   4.750   1.0498   0.03551   0.02695  -0.1620  0.8484  1.0000  -1.9175   0.0000   0.0000   0.0000   0.3995
   5.000   1.1207   0.03244   0.02467  -0.1642  0.8079  1.0000  -2.3577   0.0000   0.0000   0.0000   0.3915
   5.250   1.2093   0.02726   0.02041  -0.1658  0.7472  1.0000  -2.9075   0.0000   0.0000   0.0000   0.3817
   5.500   1.2625   0.02451   0.01775  -0.1614  0.6027  1.0000  -3.2937   0.0000   0.0000   0.0000   0.3721
   5.750   1.2655   0.02596   0.01802  -0.1535  0.4317  1.0000  -3.4642   0.0000   0.0000   0.0000   0.3652
   6.000   1.2604   0.02908   0.01984  -0.1471  0.2729  1.0000  -3.5370   0.0000   0.0000   0.0000   0.3603
   6.250   1.2705   0.03375   0.02320  -0.1437  0.1508  1.0000  -3.5430   0.0000   0.0000   0.0000   0.3564
   6.500   1.3116   0.03796   0.02716  -0.1440  0.1130  1.0000  -3.6237   0.0000   0.0000   0.0000   0.3528
   6.750   1.3544   0.04217   0.03153  -0.1447  0.1003  1.0000  -3.9184   0.0000   0.0000   0.0000   0.3495
   7.000   1.3826   0.04605   0.03584  -0.1437  0.0918  1.0000  -4.1681   0.0000   0.0000   0.0000   0.3462
   7.250   1.4056   0.05008   0.04019  -0.1423  0.0853  1.0000  -4.4112   0.0000   0.0000   0.0000   0.3433
   7.500   1.4236   0.05476   0.04559  -0.1398  0.0844  1.0000  -4.5306   0.0000   0.0000   0.0000   0.3400
   7.750   1.4352   0.05972   0.05121  -0.1368  0.0845  1.0000  -4.6072   0.0000   0.0000   0.0000   0.3369
   8.000   1.4424   0.06494   0.05716  -0.1338  0.0853  1.0000  -4.6546   0.0000   0.0000   0.0000   0.3341
   8.250   1.4484   0.07049   0.06314  -0.1311  0.0864  1.0000  -4.7076   0.0000   0.0000   0.0000   0.3316
   8.500   1.4364   0.07549   0.06893  -0.1266  0.0888  1.0000  -4.5992   0.0000   0.0000   0.0000   0.3290
   8.750   1.4189   0.08100   0.07501  -0.1228  0.0914  1.0000  -4.4809   0.0000   0.0000   0.0000   0.3273
   9.000   1.4033   0.08642   0.08078  -0.1198  0.0934  1.0000  -4.4085   0.0000   0.0000   0.0000   0.3259
   9.250   1.3895   0.09175   0.08634  -0.1174  0.0952  1.0000  -4.3653   0.0000   0.0000   0.0000   0.3248
   9.500   1.3811   0.09724   0.09200  -0.1155  0.0976  1.0000  -4.3501   0.0000   0.0000   0.0000   0.3237
   9.750   1.3426   0.10184   0.09684  -0.1136  0.0986  1.0000  -4.1681   0.0000   0.0000   0.0000   0.3244
  10.000   1.3069   0.10818   0.10320  -0.1150  0.0999  1.0000  -3.9712   0.0000   0.0000   0.0000   0.3275
  10.250   1.2757   0.11623   0.11135  -0.1195  0.1018  1.0000  -3.7522   0.0000   0.0000   0.0000   0.3330
  10.500   1.2581   0.12473   0.11986  -0.1246  0.1049  1.0000  -3.5941   0.0000   0.0000   0.0000   0.3381
  10.750   1.2373   0.13601   0.13112  -0.1340  0.1107  1.0000  -3.3022   0.0000   0.0000   0.0000   0.3472
  11.000   1.2281   0.14569   0.14076  -0.1404  0.1200  1.0000  -3.1082   0.0000   0.0000   0.0000   0.3531
  11.250   1.2119   0.15757   0.15253  -0.1502  0.1431  1.0000  -2.7613   0.0000   0.0000   0.0000   0.3627
  11.500   1.1857   0.17554   0.17039  -0.1699  0.2537  1.0000  -2.1275   0.0000   0.0000   0.0000   0.3822
  11.750   1.1939   0.18063   0.17549  -0.1707  0.2448  1.0000  -2.1876   0.0000   0.0000   0.0000   0.3815
  12.000   1.2073   0.18608   0.18100  -0.1708  0.2357  1.0000  -2.2795   0.0000   0.0000   0.0000   0.3797
  12.250   1.1965   0.18945   0.18429  -0.1749  0.2293  1.0000  -2.2097   0.0000   0.0000   0.0000   0.3841
  12.500   1.2174   0.19623   0.19115  -0.1743  0.2247  1.0000  -2.3342   0.0000   0.0000   0.0000   0.3808
  12.750   1.2060   0.19872   0.19356  -0.1789  0.2180  1.0000  -2.2559   0.0000   0.0000   0.0000   0.3856
  13.000   1.2206   0.20481   0.19968  -0.1793  0.2132  1.0000  -2.3378   0.0000   0.0000   0.0000   0.3838
  13.250   1.2180   0.20776   0.20261  -0.1826  0.2060  1.0000  -2.3116   0.0000   0.0000   0.0000   0.3865
  13.500   1.2257   0.21273   0.20758  -0.1843  0.2013  1.0000  -2.3424   0.0000   0.0000   0.0000   0.3866
  13.750   1.2329   0.21691   0.21177  -0.1860  0.1939  1.0000  -2.3735   0.0000   0.0000   0.0000   0.3868
  14.000   1.2351   0.22068   0.21551  -0.1890  0.1893  1.0000  -2.3616   0.0000   0.0000   0.0000   0.3885
  14.250   1.2506   0.22670   0.22159  -0.1892  0.1822  1.0000  -2.4376   0.0000   0.0000   0.0000   0.3864
  14.500   1.2474   0.22881   0.22364  -0.1934  0.1778  1.0000  -2.3839   0.0000   0.0000   0.0000   0.3898
  14.750   1.2666   0.23621   0.23110  -0.1929  0.1707  1.0000  -2.4747   0.0000   0.0000   0.0000   0.3867
  15.000   1.2608   0.23678   0.23161  -0.1979  0.1659  1.0000  -2.4003   0.0000   0.0000   0.0000   0.3909


