xflr5 v6.61

 Calculated polar for: E63_13_00

 1 1 Reynolds number fixed          Mach number fixed         

 xtrf =   1.000 (top)        1.000 (bottom)
 Mach =   0.200     Re =     0.125 e 6     Ncrit =   9.000

  alpha     CL        CD       CDp       Cm    Top Xtr Bot Xtr   Cpmin    Chinge    XCp    
 ------- -------- --------- --------- -------- ------- ------- -------- --------- ---------
 -20.000  -0.5091   0.24214   0.23644  -0.0042  1.0000  0.0448  -1.4111   0.0000   0.0000   0.0000   0.2139
 -19.500  -0.4984   0.23876   0.23309  -0.0082  1.0000  0.0457  -1.4864   0.0000   0.0000   0.0000   0.2063
 -19.000  -0.4925   0.23703   0.23140  -0.0123  1.0000  0.0460  -1.5761   0.0000   0.0000   0.0000   0.1986
 -18.500  -0.4710   0.22681   0.22122  -0.0130  1.0000  0.0466  -1.5048   0.0000   0.0000   0.0000   0.1960
 -18.000  -0.4517   0.21988   0.21432  -0.0135  1.0000  0.0477  -1.4144   0.0000   0.0000   0.0000   0.1938
 -17.500  -0.4359   0.21450   0.20895  -0.0149  1.0000  0.0493  -1.3682   0.0000   0.0000   0.0000   0.1898
 -17.000  -0.4214   0.20917   0.20366  -0.0166  1.0000  0.0514  -1.3438   0.0000   0.0000   0.0000   0.1850
 -16.500  -0.4086   0.20385   0.19838  -0.0187  1.0000  0.0540  -1.3453   0.0000   0.0000   0.0000   0.1792
 -16.000  -0.4049   0.20061   0.19519  -0.0225  1.0000  0.0556  -1.4408   0.0000   0.0000   0.0000   0.1702
 -15.500  -0.3998   0.19576   0.19041  -0.0250  1.0000  0.0560  -1.5024   0.0000   0.0000   0.0000   0.1638
 -15.000  -0.3734   0.18680   0.18148  -0.0234  1.0000  0.0576  -1.3690   0.0000   0.0000   0.0000   0.1633
 -14.500  -0.3587   0.18159   0.17632  -0.0238  1.0000  0.0610  -1.3295   0.0000   0.0000   0.0000   0.1599
 -14.000  -0.3523   0.17686   0.17165  -0.0259  1.0000  0.0650  -1.3883   0.0000   0.0000   0.0000   0.1534
 -13.500  -0.3637   0.17488   0.16975  -0.0298  1.0000  0.0658  -1.5587   0.0000   0.0000   0.0000   0.1468
 -13.000  -0.3356   0.16509   0.15997  -0.0277  1.0000  0.0669  -1.4320   0.0000   0.0000   0.0000   0.1454
 -12.500  -0.3212   0.15953   0.15446  -0.0270  1.0000  0.0690  -1.3734   0.0000   0.0000   0.0000   0.1440
 -12.000  -0.3125   0.15434   0.14934  -0.0271  1.0000  0.0719  -1.3628   0.0000   0.0000   0.0000   0.1419
 -10.500  -0.3021   0.13795   0.13319  -0.0277  1.0000  0.0779  -1.4276   0.0000   0.0000   0.0000   0.1396
 -10.000  -0.2948   0.13303   0.12834  -0.0264  1.0000  0.0809  -1.3938   0.0000   0.0000   0.0000   0.1425
  -9.750  -0.2949   0.13059   0.12594  -0.0261  1.0000  0.0830  -1.4029   0.0000   0.0000   0.0000   0.1440
  -9.500  -0.3037   0.12849   0.12390  -0.0268  1.0000  0.0854  -1.4692   0.0000   0.0000   0.0000   0.1451
  -9.250  -0.3235   0.12696   0.12244  -0.0283  1.0000  0.0862  -1.5901   0.0000   0.0000   0.0000   0.1474
  -9.000  -0.3395   0.12478   0.12034  -0.0292  1.0000  0.0865  -1.6910   0.0000   0.0000   0.0000   0.1498
  -8.750  -0.3119   0.12014   0.11572  -0.0255  1.0000  0.0878  -1.5360   0.0000   0.0000   0.0000   0.1535
  -8.500  -0.3046   0.11778   0.11339  -0.0236  1.0000  0.0896  -1.4912   0.0000   0.0000   0.0000   0.1580
  -8.250  -0.3052   0.11561   0.11127  -0.0224  1.0000  0.0921  -1.5040   0.0000   0.0000   0.0000   0.1625
  -8.000  -0.3157   0.11354   0.10926  -0.0221  1.0000  0.0954  -1.5707   0.0000   0.0000   0.0000   0.1667
  -7.750  -0.3430   0.11184   0.10766  -0.0229  1.0000  0.0967  -1.7129   0.0000   0.0000   0.0000   0.1713
  -7.500  -0.3667   0.10979   0.10569  -0.0228  1.0000  0.0970  -1.8320   0.0000   0.0000   0.0000   0.1769
  -7.250  -0.3321   0.10625   0.10211  -0.0184  1.0000  0.1010  -1.6914   0.0000   0.0000   0.0000   0.1832
  -7.000  -0.3408   0.10444   0.10036  -0.0170  1.0000  0.1046  -1.7290   0.0000   0.0000   0.0000   0.1894
  -6.750  -0.3671   0.10294   0.09895  -0.0163  1.0000  0.1067  -1.8310   0.0000   0.0000   0.0000   0.1961
  -6.500  -0.4380   0.09086   0.08695  -0.0211  1.0000  0.0760  -2.4285   0.0000   0.0000   0.0000   0.1929
  -6.250  -0.4265   0.09306   0.08920  -0.0172  1.0000  0.0859  -2.2319   0.0000   0.0000   0.0000   0.2013
  -6.000  -0.4042   0.08895   0.08505  -0.0213  0.9950  0.0849  -2.2077   0.0000   0.0000   0.0000   0.1886
  -5.500  -0.3345   0.03645   0.03054  -0.0966  0.9847  0.0721  -3.3791   0.0000   0.0000   0.0000  -0.0522
  -5.250  -0.2815   0.03223   0.02532  -0.1051  0.9809  0.0755  -3.2698   0.0000   0.0000   0.0000  -0.1388
  -5.000  -0.2411   0.03155   0.02466  -0.1081  0.9744  0.0785  -3.0670   0.0000   0.0000   0.0000  -0.2153
  -4.750  -0.1977   0.03102   0.02393  -0.1115  0.9685  0.0830  -2.8657   0.0000   0.0000   0.0000  -0.3335
  -4.500  -0.1540   0.02979   0.02235  -0.1152  0.9624  0.0878  -2.6913   0.0000   0.0000   0.0000  -0.5215
  -4.250  -0.1150   0.02970   0.02226  -0.1175  0.9547  0.0941  -2.4919   0.0000   0.0000   0.0000  -0.8009
  -4.000  -0.0742   0.02953   0.02208  -0.1200  0.9474  0.1021  -2.2939   0.0000   0.0000   0.0000  -1.4087
  -3.750  -0.0285   0.02922   0.02171  -0.1234  0.9416  0.1117  -2.1571   0.0000   0.0000   0.0000  -4.1770
  -3.500   0.0107   0.02851   0.02084  -0.1256  0.9335  0.1209  -2.0602   0.0000   0.0000   0.0000  12.2526
  -3.250   0.0519   0.02777   0.01992  -0.1279  0.9262  0.1308  -1.9629   0.0000   0.0000   0.0000   2.7630
  -3.000   0.0989   0.02715   0.01924  -0.1312  0.9211  0.1420  -1.8433   0.0000   0.0000   0.0000   1.5980
  -2.750   0.1367   0.02670   0.01877  -0.1328  0.9123  0.1533  -1.7323   0.0000   0.0000   0.0000   1.2353
  -2.500   0.1753   0.02639   0.01852  -0.1344  0.9037  0.1664  -1.6127   0.0000   0.0000   0.0000   1.0264
  -2.250   0.2172   0.02592   0.01804  -0.1365  0.8962  0.1802  -1.4931   0.0000   0.0000   0.0000   0.8852
  -2.000   0.2630   0.02530   0.01733  -0.1392  0.8899  0.1959  -1.3744   0.0000   0.0000   0.0000   0.7838
  -1.750   0.3008   0.02467   0.01673  -0.1404  0.8809  0.2077  -1.2822   0.0000   0.0000   0.0000   0.7199
  -1.500   0.3399   0.02402   0.01613  -0.1418  0.8723  0.2206  -1.1880   0.0000   0.0000   0.0000   0.6692
  -1.250   0.3895   0.02310   0.01519  -0.1448  0.8680  0.2381  -1.0804   0.0000   0.0000   0.0000   0.6229
  -1.000   0.4272   0.02238   0.01456  -0.1458  0.8586  0.2532  -0.9894   0.0000   0.0000   0.0000   0.5917
  -0.750   0.4666   0.02162   0.01382  -0.1470  0.8497  0.2721  -0.8977   0.0000   0.0000   0.0000   0.5647
  -0.500   0.5090   0.02069   0.01299  -0.1486  0.8419  0.2921  -0.8384   0.0000   0.0000   0.0000   0.5409
  -0.250   0.5591   0.01955   0.01196  -0.1514  0.8361  0.3179  -0.8896   0.0000   0.0000   0.0000   0.5193
   0.000   0.6018   0.01870   0.01122  -0.1530  0.8259  0.3464  -0.9375   0.0000   0.0000   0.0000   0.5024
   0.250   0.6472   0.01783   0.01048  -0.1552  0.8151  0.3788  -0.9879   0.0000   0.0000   0.0000   0.4875
   0.500   0.6962   0.01699   0.00979  -0.1581  0.8033  0.4181  -1.0435   0.0000   0.0000   0.0000   0.4744
   0.750   0.7359   0.01647   0.00942  -0.1594  0.7861  0.4634  -1.0951   0.0000   0.0000   0.0000   0.4635
   1.000   0.7832   0.01590   0.00901  -0.1621  0.7687  0.5249  -1.1543   0.0000   0.0000   0.0000   0.4535
   1.250   0.8227   0.01548   0.00876  -0.1632  0.7482  0.5944  -1.2129   0.0000   0.0000   0.0000   0.4447
   1.500   0.8550   0.01519   0.00863  -0.1629  0.7253  0.6765  -1.2653   0.0000   0.0000   0.0000   0.4364
   1.750   0.8789   0.01490   0.00853  -0.1607  0.7022  0.7853  -1.3106   0.0000   0.0000   0.0000   0.4284
   2.000   0.9033   0.01458   0.00824  -0.1587  0.6781  1.0000  -1.3562   0.0000   0.0000   0.0000   0.4209
   2.250   0.9352   0.01482   0.00819  -0.1589  0.6528  1.0000  -1.4089   0.0000   0.0000   0.0000   0.4148
   2.500   0.9640   0.01512   0.00823  -0.1585  0.6280  1.0000  -1.4593   0.0000   0.0000   0.0000   0.4090
   2.750   0.9898   0.01547   0.00836  -0.1575  0.6033  1.0000  -1.5069   0.0000   0.0000   0.0000   0.4034
   3.000   1.0147   0.01584   0.00851  -0.1564  0.5792  1.0000  -1.5540   0.0000   0.0000   0.0000   0.3980
   3.250   1.0388   0.01624   0.00870  -0.1552  0.5561  1.0000  -1.6006   0.0000   0.0000   0.0000   0.3929
   3.500   1.0621   0.01666   0.00892  -0.1538  0.5338  1.0000  -1.6466   0.0000   0.0000   0.0000   0.3880
   3.750   1.0848   0.01710   0.00918  -0.1523  0.5124  1.0000  -1.6922   0.0000   0.0000   0.0000   0.3832
   4.000   1.1071   0.01756   0.00948  -0.1508  0.4921  1.0000  -1.7376   0.0000   0.0000   0.0000   0.3787
   4.250   1.1293   0.01803   0.00979  -0.1493  0.4728  1.0000  -1.7857   0.0000   0.0000   0.0000   0.3743
   4.500   1.1514   0.01852   0.01011  -0.1478  0.4547  1.0000  -1.8387   0.0000   0.0000   0.0000   0.3702
   4.750   1.1729   0.01902   0.01050  -0.1462  0.4373  1.0000  -1.8908   0.0000   0.0000   0.0000   0.3661
   5.000   1.1957   0.01956   0.01088  -0.1449  0.4217  1.0000  -1.9451   0.0000   0.0000   0.0000   0.3623
   5.250   1.2176   0.02011   0.01137  -0.1435  0.4065  1.0000  -1.9981   0.0000   0.0000   0.0000   0.3586
   5.500   1.2398   0.02067   0.01184  -0.1421  0.3922  1.0000  -2.0517   0.0000   0.0000   0.0000   0.3550
   5.750   1.2625   0.02126   0.01231  -0.1408  0.3790  1.0000  -2.1096   0.0000   0.0000   0.0000   0.3516
   6.000   1.2853   0.02187   0.01279  -0.1396  0.3664  1.0000  -2.1693   0.0000   0.0000   0.0000   0.3483
   6.250   1.3070   0.02248   0.01333  -0.1382  0.3543  1.0000  -2.2274   0.0000   0.0000   0.0000   0.3451
   6.500   1.3290   0.02311   0.01390  -0.1368  0.3428  1.0000  -2.2872   0.0000   0.0000   0.0000   0.3419
   6.750   1.3513   0.02377   0.01449  -0.1356  0.3321  1.0000  -2.3519   0.0000   0.0000   0.0000   0.3389
   7.000   1.3742   0.02445   0.01509  -0.1344  0.3219  1.0000  -2.4177   0.0000   0.0000   0.0000   0.3361
   7.250   1.3955   0.02512   0.01578  -0.1330  0.3119  1.0000  -2.4817   0.0000   0.0000   0.0000   0.3332
   7.500   1.4140   0.02578   0.01643  -0.1311  0.3021  1.0000  -2.5420   0.0000   0.0000   0.0000   0.3302
   7.750   1.4319   0.02645   0.01711  -0.1291  0.2926  1.0000  -2.6017   0.0000   0.0000   0.0000   0.3272
   8.000   1.4507   0.02717   0.01783  -0.1273  0.2839  1.0000  -2.6627   0.0000   0.0000   0.0000   0.3244
   8.250   1.4716   0.02794   0.01856  -0.1259  0.2759  1.0000  -2.7272   0.0000   0.0000   0.0000   0.3218
   8.500   1.4955   0.02873   0.01926  -0.1250  0.2684  1.0000  -2.7969   0.0000   0.0000   0.0000   0.3195
   8.750   1.5107   0.02956   0.02019  -0.1226  0.2609  1.0000  -2.8635   0.0000   0.0000   0.0000   0.3167
   9.000   1.5308   0.03042   0.02104  -0.1212  0.2540  1.0000  -2.9507   0.0000   0.0000   0.0000   0.3143
   9.250   1.5525   0.03124   0.02180  -0.1200  0.2471  1.0000  -3.0429   0.0000   0.0000   0.0000   0.3120
   9.500   1.5651   0.03217   0.02287  -0.1173  0.2406  1.0000  -3.1152   0.0000   0.0000   0.0000   0.3093
   9.750   1.5901   0.03310   0.02375  -0.1168  0.2346  1.0000  -3.2151   0.0000   0.0000   0.0000   0.3073
  10.000   1.6004   0.03410   0.02493  -0.1138  0.2288  1.0000  -3.2832   0.0000   0.0000   0.0000   0.3046
  10.250   1.6212   0.03504   0.02581  -0.1126  0.2231  1.0000  -3.3763   0.0000   0.0000   0.0000   0.3025
  10.500   1.6287   0.03601   0.02693  -0.1094  0.2174  1.0000  -3.4412   0.0000   0.0000   0.0000   0.2997
  10.750   1.6440   0.03695   0.02785  -0.1074  0.2118  1.0000  -3.5253   0.0000   0.0000   0.0000   0.2975
  11.000   1.6500   0.03798   0.02901  -0.1041  0.2065  1.0000  -3.5883   0.0000   0.0000   0.0000   0.2948
  11.250   1.6648   0.03896   0.02997  -0.1022  0.2014  1.0000  -3.6724   0.0000   0.0000   0.0000   0.2926
  11.500   1.6672   0.04018   0.03138  -0.0987  0.1965  1.0000  -3.7269   0.0000   0.0000   0.0000   0.2900
  11.750   1.6853   0.04107   0.03219  -0.0973  0.1916  1.0000  -3.8213   0.0000   0.0000   0.0000   0.2880
  12.000   1.6809   0.04262   0.03402  -0.0932  0.1873  1.0000  -3.8589   0.0000   0.0000   0.0000   0.2853
  12.250   1.6943   0.04355   0.03489  -0.0914  0.1827  1.0000  -3.9438   0.0000   0.0000   0.0000   0.2833
  12.500   1.6940   0.04522   0.03676  -0.0883  0.1787  1.0000  -3.9909   0.0000   0.0000   0.0000   0.2810
  12.750   1.6948   0.04685   0.03854  -0.0854  0.1748  1.0000  -4.0416   0.0000   0.0000   0.0000   0.2788
  13.000   1.7182   0.04768   0.03921  -0.0848  0.1708  1.0000  -4.1506   0.0000   0.0000   0.0000   0.2772
  13.250   1.7053   0.05019   0.04208  -0.0812  0.1678  1.0000  -4.1626   0.0000   0.0000   0.0000   0.2750
  13.500   1.7030   0.05226   0.04433  -0.0787  0.1644  1.0000  -4.2034   0.0000   0.0000   0.0000   0.2731
  13.750   1.7238   0.05304   0.04500  -0.0779  0.1605  1.0000  -4.3269   0.0000   0.0000   0.0000   0.2715
  14.000   1.7077   0.05615   0.04843  -0.0750  0.1577  1.0000  -4.3459   0.0000   0.0000   0.0000   0.2697
  14.250   1.6973   0.05905   0.05156  -0.0729  0.1546  1.0000  -4.3847   0.0000   0.0000   0.0000   0.2682
  14.500   1.7045   0.06067   0.05318  -0.0717  0.1512  1.0000  -4.4881   0.0000   0.0000   0.0000   0.2668
  14.750   1.7047   0.06311   0.05572  -0.0704  0.1482  1.0000  -4.5636   0.0000   0.0000   0.0000   0.2655
  15.000   1.6835   0.06750   0.06043  -0.0691  0.1459  1.0000  -4.5574   0.0000   0.0000   0.0000   0.2647
  15.500   1.6799   0.07310   0.06622  -0.0679  0.1404  1.0000  -4.6911   0.0000   0.0000   0.0000   0.2629
  16.000   1.6437   0.08315   0.07674  -0.0686  0.1363  1.0000  -4.6853   0.0000   0.0000   0.0000   0.2630
  16.500   1.5760   0.09889   0.09306  -0.0738  0.1328  1.0000  -4.5281   0.0000   0.0000   0.0000   0.2670
  17.000   1.5940   0.10291   0.09709  -0.0739  0.1278  1.0000  -4.7329   0.0000   0.0000   0.0000   0.2653
  19.000   1.2086   0.22912   0.22423  -0.1570  0.1069  1.0000  -2.4137   0.0000   0.0000   0.0000   0.3495
  19.500   1.2114   0.23922   0.23441  -0.1638  0.1068  1.0000  -2.3545   0.0000   0.0000   0.0000   0.3541
  20.000   1.1973   0.25430   0.24954  -0.1761  0.1218  1.0000  -2.0831   0.0000   0.0000   0.0000   0.3658


