xflr5 v6.61

 Calculated polar for: E63_13_00

 1 1 Reynolds number fixed          Mach number fixed         

 xtrf =   1.000 (top)        1.000 (bottom)
 Mach =   0.200     Re =     0.100 e 6     Ncrit =   9.000

  alpha     CL        CD       CDp       Cm    Top Xtr Bot Xtr   Cpmin    Chinge    XCp    
 ------- -------- --------- --------- -------- ------- ------- -------- --------- ---------
 -20.000  -0.3262   0.21310   0.20765  -0.0198  1.0000  0.0542  -0.9243   0.0000   0.0000   0.0000   0.1701
 -19.500  -0.3230   0.21099   0.20555  -0.0219  1.0000  0.0554  -0.9833   0.0000   0.0000   0.0000   0.1633
 -19.000  -0.3260   0.21134   0.20590  -0.0242  1.0000  0.0558  -1.0714   0.0000   0.0000   0.0000   0.1569
 -18.500  -0.3087   0.20262   0.19720  -0.0240  1.0000  0.0567  -1.0060   0.0000   0.0000   0.0000   0.1532
 -18.000  -0.2973   0.19802   0.19261  -0.0242  1.0000  0.0583  -0.9627   0.0000   0.0000   0.0000   0.1496
 -17.500  -0.2891   0.19444   0.18905  -0.0248  1.0000  0.0605  -0.9500   0.0000   0.0000   0.0000   0.1452
 -17.000  -0.2829   0.19113   0.18576  -0.0256  1.0000  0.0633  -0.9565   0.0000   0.0000   0.0000   0.1403
 -16.500  -0.2845   0.18989   0.18453  -0.0275  1.0000  0.0654  -1.0255   0.0000   0.0000   0.0000   0.1344
 -16.000  -0.2785   0.18557   0.18025  -0.0279  1.0000  0.0666  -1.0314   0.0000   0.0000   0.0000   0.1306
 -15.500  -0.2662   0.18113   0.17584  -0.0273  1.0000  0.0695  -0.9876   0.0000   0.0000   0.0000   0.1283
 -15.000  -0.2615   0.17822   0.17295  -0.0276  1.0000  0.0727  -1.0075   0.0000   0.0000   0.0000   0.1251
 -14.500  -0.2656   0.17670   0.17143  -0.0292  1.0000  0.0753  -1.0947   0.0000   0.0000   0.0000   0.1214
 -14.000  -0.2750   0.17488   0.16965  -0.0306  1.0000  0.0760  -1.1956   0.0000   0.0000   0.0000   0.1203
 -13.500  -0.2522   0.16695   0.16175  -0.0285  1.0000  0.0780  -1.0920   0.0000   0.0000   0.0000   0.1180
 -13.000  -0.2459   0.16273   0.15757  -0.0280  1.0000  0.0809  -1.0801   0.0000   0.0000   0.0000   0.1174
 -12.500  -0.2454   0.15872   0.15360  -0.0282  1.0000  0.0845  -1.1096   0.0000   0.0000   0.0000   0.1169
 -12.000  -0.2655   0.15693   0.15186  -0.0303  1.0000  0.0863  -1.2545   0.0000   0.0000   0.0000   0.1191
 -11.500  -0.2456   0.14923   0.14423  -0.0279  1.0000  0.0881  -1.1682   0.0000   0.0000   0.0000   0.1190
 -11.000  -0.2387   0.14446   0.13953  -0.0265  1.0000  0.0916  -1.1380   0.0000   0.0000   0.0000   0.1222
 -10.500  -0.2472   0.14037   0.13551  -0.0267  1.0000  0.0962  -1.2025   0.0000   0.0000   0.0000   0.1262
 -10.000  -0.2576   0.13538   0.13062  -0.0267  1.0000  0.0977  -1.2743   0.0000   0.0000   0.0000   0.1319
  -9.750  -0.3189   0.13414   0.12900  -0.0296  1.0000  0.0973  -1.5355   0.0000   0.0000   0.0000   0.1411
  -9.500  -0.2432   0.12988   0.12519  -0.0236  1.0000  0.1021  -1.1956   0.0000   0.0000   0.0000   0.1388
  -9.250  -0.2912   0.12691   0.12181  -0.0256  1.0000  0.1014  -1.3976   0.0000   0.0000   0.0000   0.1453
  -9.000  -0.2667   0.12619   0.12161  -0.0240  1.0000  0.1073  -1.3190   0.0000   0.0000   0.0000   0.1476
  -8.750  -0.3105   0.12333   0.11837  -0.0260  1.0000  0.1072  -1.5090   0.0000   0.0000   0.0000   0.1518
  -8.500  -0.2553   0.12010   0.11558  -0.0206  1.0000  0.1120  -1.3041   0.0000   0.0000   0.0000   0.1571
  -8.250  -0.3010   0.11714   0.11227  -0.0229  1.0000  0.1115  -1.5105   0.0000   0.0000   0.0000   0.1598
  -8.000  -0.2879   0.11661   0.11222  -0.0207  1.0000  0.1183  -1.4669   0.0000   0.0000   0.0000   0.1680
  -7.750  -0.3324   0.11414   0.10944  -0.0225  1.0000  0.1182  -1.6692   0.0000   0.0000   0.0000   0.1705
  -7.500  -0.2757   0.11102   0.10670  -0.0165  1.0000  0.1262  -1.4388   0.0000   0.0000   0.0000   0.1801
  -7.250  -0.3206   0.10846   0.10380  -0.0182  1.0000  0.1255  -1.6451   0.0000   0.0000   0.0000   0.1817
  -7.000  -0.2980   0.10673   0.10254  -0.0149  1.0000  0.1312  -1.5228   0.0000   0.0000   0.0000   0.1916
  -6.750  -0.3749   0.10660   0.10218  -0.0163  1.0000  0.1293  -1.8284   0.0000   0.0000   0.0000   0.1973
  -6.500  -0.3034   0.10303   0.09892  -0.0115  1.0000  0.1366  -1.5100   0.0000   0.0000   0.0000   0.2044
  -6.250  -0.3561   0.10134   0.09693  -0.0116  1.0000  0.1350  -1.7286   0.0000   0.0000   0.0000   0.2087
  -6.000  -0.3513   0.09951   0.09554  -0.0121  0.9973  0.1400  -1.6753   0.0000   0.0000   0.0000   0.2092
  -5.750  -0.3963   0.09865   0.09440  -0.0088  1.0000  0.1391  -1.8306   0.0000   0.0000   0.0000   0.2205
  -5.500  -0.3191   0.09105   0.08705  -0.0234  0.9806  0.1510  -1.6572   0.0000   0.0000   0.0000   0.1701
  -5.250  -0.4193   0.08231   0.07806  -0.0268  0.9986  0.1081  -2.2571   0.0000   0.0000   0.0000   0.1787
  -5.000  -0.3803   0.08041   0.07610  -0.0324  0.9902  0.1193  -2.1123   0.0000   0.0000   0.0000   0.1573
  -4.750  -0.3469   0.07571   0.07133  -0.0396  0.9820  0.1200  -2.0603   0.0000   0.0000   0.0000   0.1278
  -4.500  -0.3109   0.07005   0.06557  -0.0494  0.9735  0.1208  -2.0304   0.0000   0.0000   0.0000   0.0827
  -4.250  -0.2715   0.06441   0.05979  -0.0594  0.9652  0.1223  -1.9897   0.0000   0.0000   0.0000   0.0216
  -4.000  -0.1826   0.04335   0.03741  -0.0954  0.9641  0.1158  -2.2357   0.0000   0.0000   0.0000  -0.2876
  -3.750  -0.1160   0.03685   0.02983  -0.1079  0.9611  0.1200  -2.1661   0.0000   0.0000   0.0000  -0.7035
  -3.500  -0.0734   0.03549   0.02834  -0.1113  0.9527  0.1245  -2.0261   0.0000   0.0000   0.0000  -1.3025
  -3.250  -0.0260   0.03342   0.02578  -0.1159  0.9452  0.1322  -1.9732   0.0000   0.0000   0.0000  -4.3039
  -3.000   0.0198   0.03228   0.02434  -0.1195  0.9375  0.1422  -1.8899   0.0000   0.0000   0.0000   6.3964
  -2.750   0.0682   0.03172   0.02372  -0.1232  0.9309  0.1547  -1.7745   0.0000   0.0000   0.0000   2.0864
  -2.500   0.1087   0.03141   0.02340  -0.1255  0.9214  0.1692  -1.6617   0.0000   0.0000   0.0000   1.4210
  -2.250   0.1504   0.03094   0.02280  -0.1279  0.9118  0.1853  -1.5534   0.0000   0.0000   0.0000   1.1109
  -2.000   0.1914   0.03036   0.02223  -0.1300  0.9022  0.1983  -1.4447   0.0000   0.0000   0.0000   0.9363
  -1.750   0.2330   0.02977   0.02161  -0.1321  0.8927  0.2126  -1.3458   0.0000   0.0000   0.0000   0.8219
  -1.500   0.2758   0.02904   0.02076  -0.1344  0.8834  0.2270  -1.2568   0.0000   0.0000   0.0000   0.7402
  -1.250   0.3181   0.02836   0.02014  -0.1364  0.8742  0.2423  -1.1607   0.0000   0.0000   0.0000   0.6805
  -1.000   0.3687   0.02744   0.01916  -0.1396  0.8679  0.2612  -1.0569   0.0000   0.0000   0.0000   0.6294
  -0.750   0.4088   0.02671   0.01854  -0.1410  0.8579  0.2789  -0.9642   0.0000   0.0000   0.0000   0.5950
  -0.500   0.4499   0.02590   0.01779  -0.1425  0.8479  0.2985  -0.8729   0.0000   0.0000   0.0000   0.5660
  -0.250   0.4918   0.02503   0.01700  -0.1439  0.8380  0.3218  -0.8327   0.0000   0.0000   0.0000   0.5415
   0.000   0.5343   0.02407   0.01612  -0.1453  0.8283  0.3499  -0.8784   0.0000   0.0000   0.0000   0.5203
   0.250   0.5786   0.02300   0.01516  -0.1469  0.8187  0.3815  -0.9275   0.0000   0.0000   0.0000   0.5017
   0.500   0.6247   0.02187   0.01420  -0.1488  0.8090  0.4171  -0.9786   0.0000   0.0000   0.0000   0.4856
   0.750   0.6718   0.02078   0.01330  -0.1508  0.7980  0.4641  -1.0335   0.0000   0.0000   0.0000   0.4716
   1.000   0.7206   0.01974   0.01248  -0.1532  0.7856  0.5249  -1.0932   0.0000   0.0000   0.0000   0.4593
   1.250   0.7730   0.01871   0.01170  -0.1562  0.7718  0.6043  -1.1588   0.0000   0.0000   0.0000   0.4484
   1.500   0.8097   0.01803   0.01129  -0.1563  0.7529  0.6966  -1.2149   0.0000   0.0000   0.0000   0.4390
   1.750   0.8343   0.01722   0.01081  -0.1535  0.7340  0.8435  -1.2606   0.0000   0.0000   0.0000   0.4297
   2.000   0.8765   0.01684   0.01023  -0.1553  0.7108  1.0000  -1.3221   0.0000   0.0000   0.0000   0.4225
   2.250   0.9158   0.01689   0.00998  -0.1567  0.6864  1.0000  -1.3817   0.0000   0.0000   0.0000   0.4160
   2.500   0.9518   0.01705   0.00986  -0.1574  0.6619  1.0000  -1.4387   0.0000   0.0000   0.0000   0.4100
   2.750   0.9800   0.01733   0.00992  -0.1568  0.6365  1.0000  -1.4883   0.0000   0.0000   0.0000   0.4043
   3.000   1.0083   0.01767   0.01004  -0.1562  0.6121  1.0000  -1.5383   0.0000   0.0000   0.0000   0.3988
   3.250   1.0357   0.01805   0.01019  -0.1554  0.5885  1.0000  -1.5878   0.0000   0.0000   0.0000   0.3937
   3.500   1.0618   0.01848   0.01041  -0.1545  0.5657  1.0000  -1.6361   0.0000   0.0000   0.0000   0.3888
   3.750   1.0867   0.01894   0.01067  -0.1534  0.5437  1.0000  -1.6834   0.0000   0.0000   0.0000   0.3841
   4.000   1.1105   0.01942   0.01099  -0.1521  0.5224  1.0000  -1.7298   0.0000   0.0000   0.0000   0.3795
   4.250   1.1337   0.01993   0.01133  -0.1507  0.5020  1.0000  -1.7800   0.0000   0.0000   0.0000   0.3752
   4.500   1.1566   0.02045   0.01168  -0.1493  0.4824  1.0000  -1.8334   0.0000   0.0000   0.0000   0.3710
   4.750   1.1804   0.02100   0.01203  -0.1481  0.4642  1.0000  -1.8883   0.0000   0.0000   0.0000   0.3670
   5.000   1.2015   0.02156   0.01249  -0.1464  0.4463  1.0000  -1.9396   0.0000   0.0000   0.0000   0.3631
   5.250   1.2249   0.02215   0.01297  -0.1452  0.4303  1.0000  -1.9944   0.0000   0.0000   0.0000   0.3594
   5.500   1.2470   0.02278   0.01352  -0.1438  0.4149  1.0000  -2.0469   0.0000   0.0000   0.0000   0.3558
   5.750   1.2710   0.02343   0.01404  -0.1427  0.4009  1.0000  -2.1065   0.0000   0.0000   0.0000   0.3524
   6.000   1.2954   0.02412   0.01459  -0.1418  0.3877  1.0000  -2.1674   0.0000   0.0000   0.0000   0.3492
   6.250   1.3166   0.02480   0.01524  -0.1402  0.3745  1.0000  -2.2236   0.0000   0.0000   0.0000   0.3460
   6.500   1.3387   0.02552   0.01590  -0.1389  0.3623  1.0000  -2.2829   0.0000   0.0000   0.0000   0.3428
   6.750   1.3615   0.02627   0.01660  -0.1377  0.3509  1.0000  -2.3469   0.0000   0.0000   0.0000   0.3399
   7.000   1.3843   0.02705   0.01741  -0.1366  0.3402  1.0000  -2.4113   0.0000   0.0000   0.0000   0.3370
   7.250   1.4070   0.02785   0.01816  -0.1354  0.3300  1.0000  -2.4758   0.0000   0.0000   0.0000   0.3342
   7.500   1.4294   0.02866   0.01892  -0.1342  0.3200  1.0000  -2.5405   0.0000   0.0000   0.0000   0.3314
   7.750   1.4515   0.02946   0.01965  -0.1329  0.3103  1.0000  -2.6058   0.0000   0.0000   0.0000   0.3288
   8.000   1.4736   0.03026   0.02039  -0.1317  0.3009  1.0000  -2.6715   0.0000   0.0000   0.0000   0.3262
   8.250   1.4903   0.03113   0.02135  -0.1296  0.2920  1.0000  -2.7272   0.0000   0.0000   0.0000   0.3233
   8.500   1.5087   0.03208   0.02234  -0.1278  0.2837  1.0000  -2.7855   0.0000   0.0000   0.0000   0.3207
   8.750   1.5310   0.03306   0.02330  -0.1267  0.2763  1.0000  -2.8704   0.0000   0.0000   0.0000   0.3184
   9.000   1.5536   0.03400   0.02421  -0.1256  0.2690  1.0000  -2.9615   0.0000   0.0000   0.0000   0.3161
   9.250   1.5669   0.03511   0.02546  -0.1231  0.2619  1.0000  -3.0329   0.0000   0.0000   0.0000   0.3134
   9.500   1.5888   0.03613   0.02645  -0.1220  0.2552  1.0000  -3.1241   0.0000   0.0000   0.0000   0.3112
   9.750   1.6043   0.03720   0.02767  -0.1199  0.2487  1.0000  -3.2020   0.0000   0.0000   0.0000   0.3087
  10.000   1.6195   0.03845   0.02902  -0.1178  0.2430  1.0000  -3.2784   0.0000   0.0000   0.0000   0.3063
  10.250   1.6388   0.03955   0.03014  -0.1163  0.2372  1.0000  -3.3656   0.0000   0.0000   0.0000   0.3041
  10.500   1.6477   0.04092   0.03166  -0.1134  0.2321  1.0000  -3.4293   0.0000   0.0000   0.0000   0.3015
  10.750   1.6638   0.04205   0.03283  -0.1115  0.2266  1.0000  -3.5111   0.0000   0.0000   0.0000   0.2993
  11.000   1.6725   0.04350   0.03442  -0.1087  0.2220  1.0000  -3.5749   0.0000   0.0000   0.0000   0.2968
  11.250   1.6779   0.04498   0.03606  -0.1054  0.2175  1.0000  -3.6314   0.0000   0.0000   0.0000   0.2943
  11.500   1.7000   0.04623   0.03727  -0.1046  0.2128  1.0000  -3.7276   0.0000   0.0000   0.0000   0.2925
  11.750   1.6882   0.04819   0.03959  -0.0994  0.2092  1.0000  -3.7437   0.0000   0.0000   0.0000   0.2894
  12.000   1.7124   0.04898   0.04027  -0.0987  0.2038  1.0000  -3.8505   0.0000   0.0000   0.0000   0.2877
  12.250   1.6983   0.05116   0.04274  -0.0937  0.2005  1.0000  -3.8617   0.0000   0.0000   0.0000   0.2848
  12.500   1.6902   0.05311   0.04490  -0.0896  0.1965  1.0000  -3.8885   0.0000   0.0000   0.0000   0.2822
  12.750   1.7100   0.05386   0.04554  -0.0886  0.1913  1.0000  -3.9888   0.0000   0.0000   0.0000   0.2805
  13.000   1.6840   0.05699   0.04904  -0.0836  0.1887  1.0000  -3.9671   0.0000   0.0000   0.0000   0.2779
  13.250   1.6793   0.05910   0.05129  -0.0808  0.1849  1.0000  -4.0015   0.0000   0.0000   0.0000   0.2758
  13.500   1.6939   0.06022   0.05236  -0.0795  0.1804  1.0000  -4.0877   0.0000   0.0000   0.0000   0.2741
  13.750   1.6598   0.06471   0.05724  -0.0758  0.1786  1.0000  -4.0378   0.0000   0.0000   0.0000   0.2724
  14.000   1.6292   0.06951   0.06235  -0.0734  0.1766  1.0000  -3.9943   0.0000   0.0000   0.0000   0.2713
  14.250   1.6722   0.06795   0.06054  -0.0730  0.1702  1.0000  -4.2185   0.0000   0.0000   0.0000   0.2693
  14.500   1.6260   0.07447   0.06744  -0.0711  0.1692  1.0000  -4.1212   0.0000   0.0000   0.0000   0.2689
  14.750   1.5689   0.08335   0.07673  -0.0713  0.1689  1.0000  -3.9735   0.0000   0.0000   0.0000   0.2701
  15.000   1.4859   0.09766   0.09146  -0.0757  0.1702  1.0000  -3.7051   0.0000   0.0000   0.0000   0.2752
  17.500   1.1179   0.22787   0.22232  -0.1588  0.1792  1.0000  -1.7488   0.0000   0.0000   0.0000   0.3666
  18.000   1.1391   0.23386   0.22836  -0.1610  0.1721  1.0000  -1.8414   0.0000   0.0000   0.0000   0.3648
  18.500   1.1433   0.24044   0.23496  -0.1670  0.1659  1.0000  -1.8298   0.0000   0.0000   0.0000   0.3685
  19.000   1.1765   0.24751   0.24211  -0.1666  0.1599  1.0000  -1.9928   0.0000   0.0000   0.0000   0.3628
  19.500   1.1978   0.25308   0.24775  -0.1686  0.1496  1.0000  -2.0965   0.0000   0.0000   0.0000   0.3607
  20.000   1.1917   0.25716   0.25183  -0.1770  0.1415  1.0000  -2.0110   0.0000   0.0000   0.0000   0.3675


