xflr5 v6.61

 Calculated polar for: E63_7_00

 1 1 Reynolds number fixed          Mach number fixed         

 xtrf =   1.000 (top)        1.000 (bottom)
 Mach =   0.200     Re =     0.080 e 6     Ncrit =   7.000

  alpha     CL        CD       CDp       Cm    Top Xtr Bot Xtr   Cpmin    Chinge    XCp    
 ------- -------- --------- --------- -------- ------- ------- -------- --------- ---------
 -28.000  -0.8323   0.33232   0.32571   0.0655  1.0000  0.0170  -1.6834   0.0000   0.0000   0.0000   0.3077
 -27.500  -0.8192   0.32707   0.32043   0.0617  1.0000  0.0178  -1.6278   0.0000   0.0000   0.0000   0.3052
 -27.000  -0.8055   0.32203   0.31538   0.0577  1.0000  0.0187  -1.5894   0.0000   0.0000   0.0000   0.3023
 -26.500  -0.7915   0.31692   0.31023   0.0537  1.0000  0.0195  -1.5564   0.0000   0.0000   0.0000   0.2993
 -26.000  -0.7773   0.31176   0.30507   0.0498  1.0000  0.0203  -1.5234   0.0000   0.0000   0.0000   0.2963
 -25.500  -0.7628   0.30662   0.29992   0.0459  1.0000  0.0211  -1.5238   0.0000   0.0000   0.0000   0.2930
 -25.000  -0.7480   0.30166   0.29494   0.0420  1.0000  0.0216  -1.5362   0.0000   0.0000   0.0000   0.2896
 -24.500  -0.7332   0.29713   0.29041   0.0379  1.0000  0.0219  -1.5552   0.0000   0.0000   0.0000   0.2858
 -24.000  -0.7189   0.29326   0.28654   0.0337  1.0000  0.0221  -1.5795   0.0000   0.0000   0.0000   0.2816
 -23.500  -0.7047   0.28854   0.28182   0.0299  1.0000  0.0223  -1.5855   0.0000   0.0000   0.0000   0.2776
 -23.000  -0.6892   0.28004   0.27331   0.0277  1.0000  0.0231  -1.4833   0.0000   0.0000   0.0000   0.2759
 -22.500  -0.6742   0.27449   0.26776   0.0245  1.0000  0.0241  -1.4348   0.0000   0.0000   0.0000   0.2727
 -22.000  -0.6591   0.26909   0.26236   0.0213  1.0000  0.0250  -1.3987   0.0000   0.0000   0.0000   0.2692
 -21.500  -0.6438   0.26370   0.25698   0.0181  1.0000  0.0259  -1.3864   0.0000   0.0000   0.0000   0.2654
 -21.000  -0.6285   0.25846   0.25174   0.0148  1.0000  0.0269  -1.3974   0.0000   0.0000   0.0000   0.2614
 -20.500  -0.6134   0.25397   0.24722   0.0113  1.0000  0.0277  -1.4254   0.0000   0.0000   0.0000   0.2567
 -20.000  -0.5999   0.25102   0.24430   0.0075  1.0000  0.0281  -1.4715   0.0000   0.0000   0.0000   0.2511
 -19.500  -0.5886   0.24916   0.24247   0.0036  1.0000  0.0283  -1.5204   0.0000   0.0000   0.0000   0.2453
 -19.000  -0.5709   0.23934   0.23268   0.0018  1.0000  0.0287  -1.4653   0.0000   0.0000   0.0000   0.2426
 -18.500  -0.5539   0.23086   0.22420   0.0005  1.0000  0.0295  -1.3738   0.0000   0.0000   0.0000   0.2406
 -18.000  -0.5388   0.22488   0.21824  -0.0016  1.0000  0.0306  -1.3230   0.0000   0.0000   0.0000   0.2370
 -17.500  -0.5240   0.21923   0.21258  -0.0038  1.0000  0.0319  -1.2832   0.0000   0.0000   0.0000   0.2331
 -17.000  -0.5095   0.21368   0.20705  -0.0061  1.0000  0.0336  -1.2500   0.0000   0.0000   0.0000   0.2288
 -16.500  -0.4953   0.20824   0.20164  -0.0084  1.0000  0.0354  -1.2628   0.0000   0.0000   0.0000   0.2241
 -16.000  -0.4824   0.20358   0.19701  -0.0110  1.0000  0.0367  -1.3102   0.0000   0.0000   0.0000   0.2184
 -15.500  -0.4721   0.20004   0.19352  -0.0140  1.0000  0.0372  -1.3819   0.0000   0.0000   0.0000   0.2121
 -15.000  -0.4651   0.19730   0.19085  -0.0169  1.0000  0.0374  -1.4639   0.0000   0.0000   0.0000   0.2058
 -14.500  -0.4432   0.18581   0.17939  -0.0162  1.0000  0.0386  -1.3473   0.0000   0.0000   0.0000   0.2054
 -14.000  -0.4297   0.17973   0.17334  -0.0172  1.0000  0.0402  -1.3193   0.0000   0.0000   0.0000   0.2021
 -13.500  -0.4175   0.17409   0.16770  -0.0185  1.0000  0.0420  -1.3149   0.0000   0.0000   0.0000   0.1980
 -13.000  -0.4063   0.16871   0.16237  -0.0199  1.0000  0.0439  -1.3271   0.0000   0.0000   0.0000   0.1935
 -12.500  -0.3984   0.16449   0.15822  -0.0220  1.0000  0.0455  -1.3797   0.0000   0.0000   0.0000   0.1877
 -12.000  -0.3966   0.16191   0.15573  -0.0245  1.0000  0.0460  -1.4665   0.0000   0.0000   0.0000   0.1817
 -11.500  -0.3791   0.15262   0.14650  -0.0238  1.0000  0.0470  -1.3853   0.0000   0.0000   0.0000   0.1806
 -11.000  -0.3665   0.14621   0.14013  -0.0235  1.0000  0.0491  -1.3207   0.0000   0.0000   0.0000   0.1794
 -10.500  -0.3574   0.14080   0.13480  -0.0238  1.0000  0.0515  -1.2993   0.0000   0.0000   0.0000   0.1771
 -10.000  -0.3511   0.13592   0.13000  -0.0245  1.0000  0.0541  -1.3077   0.0000   0.0000   0.0000   0.1743
  -9.500  -0.3527   0.13287   0.12707  -0.0260  1.0000  0.0555  -1.3798   0.0000   0.0000   0.0000   0.1708
  -9.000  -0.3613   0.13072   0.12507  -0.0274  1.0000  0.0559  -1.4745   0.0000   0.0000   0.0000   0.1694
  -8.500  -0.3338   0.12024   0.11457  -0.0238  1.0000  0.0599  -1.2783   0.0000   0.0000   0.0000   0.1737
  -8.000  -0.3333   0.11610   0.11055  -0.0233  1.0000  0.0641  -1.3131   0.0000   0.0000   0.0000   0.1754
  -7.500  -0.3501   0.11456   0.10920  -0.0232  1.0000  0.0656  -1.4389   0.0000   0.0000   0.0000   0.1796
  -7.000  -0.3358   0.10704   0.10177  -0.0202  1.0000  0.0687  -1.3628   0.0000   0.0000   0.0000   0.1861
  -6.500  -0.3421   0.10335   0.09822  -0.0173  1.0000  0.0723  -1.3816   0.0000   0.0000   0.0000   0.1958
  -6.000  -0.3600   0.10119   0.09626  -0.0170  1.0000  0.0752  -1.4869   0.0000   0.0000   0.0000   0.1999
  -5.500  -0.3575   0.09549   0.09069  -0.0166  1.0000  0.0770  -1.5089   0.0000   0.0000   0.0000   0.2008
  -5.000  -0.3502   0.09020   0.08550  -0.0148  1.0000  0.0814  -1.4729   0.0000   0.0000   0.0000   0.2052
  -4.500  -0.3273   0.08410   0.07947  -0.0276  1.0000  0.0869  -1.6032   0.0000   0.0000   0.0000   0.1632
  -4.000  -0.3158   0.07842   0.07388  -0.0235  1.0000  0.0915  -1.5195   0.0000   0.0000   0.0000   0.1731
  -3.500  -0.2743   0.07109   0.06655  -0.0343  1.0000  0.0996  -1.5465   0.0000   0.0000   0.0000   0.1226
  -3.000  -0.2185   0.06355   0.05888  -0.0459  1.0000  0.1105  -1.5312   0.0000   0.0000   0.0000   0.0371
  -2.500  -0.0610   0.04585   0.04031  -0.0826  1.0000  0.0644  -1.8826   0.0000   0.0000   0.0000  -1.1139
  -2.000   0.1024   0.03207   0.02465  -0.1110  1.0000  0.0548  -2.0752   0.0000   0.0000   0.0000   1.3404
  -1.500   0.2057   0.02736   0.01874  -0.1211  0.9975  0.0585  -1.9139   0.0000   0.0000   0.0000   0.8411
  -1.000   0.2999   0.02531   0.01620  -0.1282  0.9901  0.0875  -1.7027   0.0000   0.0000   0.0000   0.6787
  -0.500   0.3922   0.02478   0.01592  -0.1359  0.9791  0.2067  -1.2819   0.0000   0.0000   0.0000   0.5967
   0.000   0.4777   0.02407   0.01596  -0.1421  0.9639  0.4582  -0.8505   0.0000   0.0000   0.0000   0.5470
   0.500   0.5434   0.02294   0.01563  -0.1429  0.9439  1.0000  -0.6202   0.0000   0.0000   0.0000   0.5119
   1.000   0.6266   0.02302   0.01526  -0.1478  0.9227  1.0000  -0.7014   0.0000   0.0000   0.0000   0.4842
   1.500   0.7085   0.02279   0.01480  -0.1519  0.9005  1.0000  -0.7906   0.0000   0.0000   0.0000   0.4623
   2.000   0.7855   0.02228   0.01420  -0.1546  0.8746  1.0000  -0.8947   0.0000   0.0000   0.0000   0.4442
   2.500   0.8660   0.02129   0.01323  -0.1572  0.8488  1.0000  -1.0146   0.0000   0.0000   0.0000   0.4283
   3.000   0.9446   0.02014   0.01216  -0.1590  0.8184  1.0000  -1.1499   0.0000   0.0000   0.0000   0.4146
   3.500   1.0275   0.01895   0.01109  -0.1613  0.7778  1.0000  -1.3085   0.0000   0.0000   0.0000   0.4027
   4.000   1.1133   0.01817   0.01033  -0.1642  0.7166  1.0000  -1.5151   0.0000   0.0000   0.0000   0.3927
   4.500   1.1828   0.01836   0.01029  -0.1645  0.6312  1.0000  -1.7308   0.0000   0.0000   0.0000   0.3837
   5.000   1.2360   0.01937   0.01099  -0.1623  0.5411  1.0000  -1.9435   0.0000   0.0000   0.0000   0.3753
   5.500   1.2795   0.02083   0.01211  -0.1588  0.4582  1.0000  -2.2438   0.0000   0.0000   0.0000   0.3674
   6.000   1.3193   0.02255   0.01352  -0.1550  0.3863  1.0000  -2.5450   0.0000   0.0000   0.0000   0.3601
   6.500   1.3571   0.02445   0.01522  -0.1511  0.3246  1.0000  -2.8987   0.0000   0.0000   0.0000   0.3533
   7.000   1.3900   0.02646   0.01715  -0.1466  0.2679  1.0000  -3.2475   0.0000   0.0000   0.0000   0.3468
   7.500   1.4181   0.02847   0.01909  -0.1417  0.2150  1.0000  -3.5902   0.0000   0.0000   0.0000   0.3404
   8.000   1.4466   0.03066   0.02135  -0.1369  0.1741  1.0000  -3.9350   0.0000   0.0000   0.0000   0.3344
   8.500   1.4722   0.03321   0.02405  -0.1316  0.1422  1.0000  -4.2590   0.0000   0.0000   0.0000   0.3285
   9.000   1.4899   0.03625   0.02723  -0.1257  0.1103  1.0000  -4.5372   0.0000   0.0000   0.0000   0.3227
   9.500   1.5008   0.04016   0.03129  -0.1192  0.0835  1.0000  -4.7490   0.0000   0.0000   0.0000   0.3170
  10.000   1.5081   0.04494   0.03628  -0.1129  0.0670  1.0000  -4.9077   0.0000   0.0000   0.0000   0.3117
  10.500   1.5209   0.05036   0.04199  -0.1077  0.0574  1.0000  -5.0550   0.0000   0.0000   0.0000   0.3068
  11.000   1.5330   0.05662   0.04888  -0.1030  0.0515  1.0000  -5.2380   0.0000   0.0000   0.0000   0.3024
  11.500   1.5341   0.06282   0.05533  -0.0988  0.0470  1.0000  -5.4502   0.0000   0.0000   0.0000   0.2988
  12.000   1.5165   0.07118   0.06454  -0.0950  0.0446  1.0000  -5.4830   0.0000   0.0000   0.0000   0.2962
  12.500   1.4893   0.08129   0.07535  -0.0936  0.0436  1.0000  -5.4509   0.0000   0.0000   0.0000   0.2956
  13.000   1.4512   0.09372   0.08840  -0.0959  0.0433  1.0000  -5.3327   0.0000   0.0000   0.0000   0.2980
  13.500   1.4047   0.10948   0.10471  -0.1036  0.0437  1.0000  -5.1086   0.0000   0.0000   0.0000   0.3048
  14.000   1.3509   0.13044   0.12608  -0.1181  0.0447  1.0000  -4.7209   0.0000   0.0000   0.0000   0.3179
  14.500   1.3007   0.15559   0.15138  -0.1363  0.0465  1.0000  -4.1578   0.0000   0.0000   0.0000   0.3351
  15.000   1.2732   0.17787   0.17362  -0.1510  0.0471  1.0000  -3.6419   0.0000   0.0000   0.0000   0.3487
  15.500   1.2649   0.19508   0.19076  -0.1617  0.0471  1.0000  -3.2958   0.0000   0.0000   0.0000   0.3576


