xflr5 v6.61

 Calculated polar for: E63_13_00

 1 1 Reynolds number fixed          Mach number fixed         

 xtrf =   1.000 (top)        1.000 (bottom)
 Mach =   0.200     Re =     0.060 e 6     Ncrit =   9.000

  alpha     CL        CD       CDp       Cm    Top Xtr Bot Xtr   Cpmin    Chinge    XCp    
 ------- -------- --------- --------- -------- ------- ------- -------- --------- ---------
 -20.000  -0.5091   0.24675   0.23853  -0.0063  1.0000  0.0751  -1.3843   0.0000   0.0000   0.0000   0.2099
 -19.000  -0.4774   0.23446   0.22634  -0.0105  1.0000  0.0778  -1.3514   0.0000   0.0000   0.0000   0.2011
 -18.500  -0.4609   0.22880   0.22072  -0.0122  1.0000  0.0808  -1.3192   0.0000   0.0000   0.0000   0.1969
 -18.000  -0.4478   0.22430   0.21627  -0.0147  1.0000  0.0849  -1.3215   0.0000   0.0000   0.0000   0.1911
 -17.000  -0.4189   0.21304   0.20510  -0.0182  1.0000  0.0896  -1.2884   0.0000   0.0000   0.0000   0.1811
 -16.500  -0.4044   0.20772   0.19983  -0.0197  1.0000  0.0934  -1.2641   0.0000   0.0000   0.0000   0.1761
 -16.000  -0.3970   0.20441   0.19659  -0.0224  1.0000  0.0966  -1.3060   0.0000   0.0000   0.0000   0.1692
 -15.500  -0.3844   0.19833   0.19060  -0.0238  1.0000  0.0980  -1.3168   0.0000   0.0000   0.0000   0.1640
 -15.000  -0.3661   0.19152   0.18383  -0.0240  1.0000  0.1015  -1.2759   0.0000   0.0000   0.0000   0.1604
 -14.500  -0.3558   0.18677   0.17915  -0.0254  1.0000  0.1059  -1.2894   0.0000   0.0000   0.0000   0.1551
 -14.000  -0.3570   0.18436   0.17686  -0.0280  1.0000  0.1080  -1.3649   0.0000   0.0000   0.0000   0.1493
 -13.500  -0.3326   0.17547   0.16798  -0.0269  1.0000  0.1117  -1.2862   0.0000   0.0000   0.0000   0.1463
 -13.000  -0.3246   0.17075   0.16334  -0.0278  1.0000  0.1169  -1.2970   0.0000   0.0000   0.0000   0.1421
 -12.500  -0.3230   0.16643   0.15913  -0.0291  1.0000  0.1194  -1.3413   0.0000   0.0000   0.0000   0.1385
 -12.000  -0.3049   0.15951   0.15228  -0.0281  1.0000  0.1245  -1.2878   0.0000   0.0000   0.0000   0.1363
 -11.500  -0.3128   0.15695   0.14984  -0.0297  1.0000  0.1293  -1.3629   0.0000   0.0000   0.0000   0.1352
 -11.000  -0.2921   0.14897   0.14194  -0.0281  1.0000  0.1342  -1.3007   0.0000   0.0000   0.0000   0.1337
 -10.500  -0.3038   0.14640   0.13951  -0.0291  1.0000  0.1402  -1.3790   0.0000   0.0000   0.0000   0.1360
 -10.000  -0.2841   0.13871   0.13191  -0.0270  1.0000  0.1471  -1.3223   0.0000   0.0000   0.0000   0.1364
  -9.750  -0.2952   0.13785   0.13113  -0.0275  1.0000  0.1507  -1.3782   0.0000   0.0000   0.0000   0.1395
  -9.500  -0.2863   0.13381   0.12715  -0.0264  1.0000  0.1536  -1.3710   0.0000   0.0000   0.0000   0.1404
  -9.250  -0.2854   0.13159   0.12498  -0.0257  1.0000  0.1601  -1.3894   0.0000   0.0000   0.0000   0.1434
  -9.000  -0.2848   0.12883   0.12230  -0.0248  1.0000  0.1653  -1.4121   0.0000   0.0000   0.0000   0.1465
  -8.750  -0.2935   0.12775   0.12129  -0.0244  1.0000  0.1724  -1.4563   0.0000   0.0000   0.0000   0.1518
  -8.500  -0.2857   0.12450   0.11805  -0.0227  1.0000  0.1815  -1.4469   0.0000   0.0000   0.0000   0.1554
  -8.250  -0.2844   0.12211   0.11573  -0.0213  1.0000  0.1906  -1.4515   0.0000   0.0000   0.0000   0.1603
  -8.000  -0.3066   0.12230   0.11604  -0.0209  1.0000  0.1950  -1.5224   0.0000   0.0000   0.0000   0.1687
  -7.750  -0.2886   0.11788   0.11163  -0.0189  1.0000  0.2018  -1.4756   0.0000   0.0000   0.0000   0.1710
  -7.500  -0.3093   0.11772   0.11159  -0.0181  1.0000  0.2057  -1.5343   0.0000   0.0000   0.0000   0.1796
  -7.250  -0.2989   0.11400   0.10790  -0.0164  1.0000  0.2090  -1.5041   0.0000   0.0000   0.0000   0.1831
  -7.000  -0.3017   0.11217   0.10613  -0.0148  1.0000  0.2141  -1.5028   0.0000   0.0000   0.0000   0.1896
  -6.750  -0.3322   0.11267   0.10677  -0.0132  1.0000  0.2169  -1.5762   0.0000   0.0000   0.0000   0.2004
  -6.500  -0.3129   0.10842   0.10254  -0.0115  1.0000  0.2209  -1.5120   0.0000   0.0000   0.0000   0.2033
  -6.250  -0.3236   0.10723   0.10143  -0.0095  1.0000  0.2258  -1.5240   0.0000   0.0000   0.0000   0.2115
  -6.000  -0.3618   0.10803   0.10239  -0.0067  1.0000  0.2280  -1.6049   0.0000   0.0000   0.0000   0.2236
  -5.750  -0.3377   0.10371   0.09807  -0.0052  1.0000  0.2325  -1.5238   0.0000   0.0000   0.0000   0.2265
  -5.500  -0.3567   0.10299   0.09745  -0.0025  1.0000  0.2371  -1.5493   0.0000   0.0000   0.0000   0.2356
  -5.250  -0.3730   0.10156   0.09613  -0.0015  1.0000  0.2400  -1.5797   0.0000   0.0000   0.0000   0.2393
  -5.000  -0.3673   0.09914   0.09375   0.0009  1.0000  0.2447  -1.5369   0.0000   0.0000   0.0000   0.2461
  -4.750  -0.3885   0.09800   0.09272  -0.0009  1.0000  0.2502  -1.5967   0.0000   0.0000   0.0000   0.2418
  -4.500  -0.3798   0.09535   0.09010   0.0027  1.0000  0.2542  -1.5360   0.0000   0.0000   0.0000   0.2515
  -4.250  -0.3901   0.09351   0.08834   0.0004  1.0000  0.2616  -1.5661   0.0000   0.0000   0.0000   0.2459
  -4.000  -0.3858   0.09148   0.08635   0.0033  1.0000  0.2691  -1.5186   0.0000   0.0000   0.0000   0.2535
  -3.750  -0.3857   0.08927   0.08420   0.0037  1.0000  0.2760  -1.4998   0.0000   0.0000   0.0000   0.2548
  -3.500  -0.3852   0.08704   0.08201   0.0024  1.0000  0.2850  -1.4902   0.0000   0.0000   0.0000   0.2516
  -3.250  -0.3812   0.08475   0.07976   0.0003  1.0000  0.2948  -1.4753   0.0000   0.0000   0.0000   0.2463
  -2.750  -0.2561   0.05857   0.05250  -0.0549  1.0000  0.1845  -1.7245   0.0000   0.0000   0.0000   0.0288
  -2.500  -0.2148   0.05446   0.04820  -0.0620  0.9972  0.1793  -1.6595   0.0000   0.0000   0.0000  -0.0464
  -2.250  -0.1159   0.04728   0.04006  -0.0829  0.9866  0.1861  -1.6416   0.0000   0.0000   0.0000  -0.4788
  -2.000  -0.0552   0.04543   0.03789  -0.0910  0.9741  0.1992  -1.5746   0.0000   0.0000   0.0000  -1.4255
  -1.750   0.0061   0.04382   0.03585  -0.0990  0.9623  0.2184  -1.5010   0.0000   0.0000   0.0000  16.6219
  -1.500   0.0576   0.04285   0.03471  -0.1041  0.9494  0.2334  -1.4144   0.0000   0.0000   0.0000   2.0765
  -1.250   0.1068   0.04208   0.03373  -0.1088  0.9357  0.2527  -1.3303   0.0000   0.0000   0.0000   1.2773
  -1.000   0.1600   0.04124   0.03256  -0.1139  0.9228  0.2714  -1.2564   0.0000   0.0000   0.0000   0.9666
  -0.750   0.2102   0.04078   0.03207  -0.1179  0.9101  0.2918  -1.1659   0.0000   0.0000   0.0000   0.8132
  -0.500   0.2498   0.04032   0.03158  -0.1202  0.8947  0.3096  -1.0887   0.0000   0.0000   0.0000   0.7321
  -0.250   0.2970   0.03981   0.03101  -0.1234  0.8810  0.3321  -1.0006   0.0000   0.0000   0.0000   0.6656
   0.000   0.3475   0.03920   0.03032  -0.1269  0.8682  0.3589  -0.9075   0.0000   0.0000   0.0000   0.6146
   0.250   0.3840   0.03884   0.03005  -0.1281  0.8519  0.3843  -0.8284   0.0000   0.0000   0.0000   0.5824
   0.500   0.4303   0.03820   0.02947  -0.1305  0.8380  0.4167  -0.8000   0.0000   0.0000   0.0000   0.5514
   0.750   0.4805   0.03734   0.02869  -0.1331  0.8251  0.4556  -0.8510   0.0000   0.0000   0.0000   0.5247
   1.000   0.5155   0.03689   0.02836  -0.1334  0.8082  0.4966  -0.8902   0.0000   0.0000   0.0000   0.5060
   1.250   0.5621   0.03585   0.02751  -0.1348  0.7948  0.5549  -0.9409   0.0000   0.0000   0.0000   0.4867
   1.500   0.6086   0.03447   0.02641  -0.1357  0.7825  0.6323  -0.9973   0.0000   0.0000   0.0000   0.4694
   1.750   0.6462   0.03276   0.02517  -0.1344  0.7709  0.7448  -1.0476   0.0000   0.0000   0.0000   0.4540
   2.000   0.6707   0.03153   0.02416  -0.1324  0.7533  1.0000  -1.0859   0.0000   0.0000   0.0000   0.4430
   2.250   0.7356   0.03022   0.02244  -0.1369  0.7404  1.0000  -1.1677   0.0000   0.0000   0.0000   0.4314
   2.500   0.8020   0.02870   0.02066  -0.1411  0.7275  1.0000  -1.2540   0.0000   0.0000   0.0000   0.4209
   2.750   0.8480   0.02810   0.01990  -0.1426  0.7086  1.0000  -1.3194   0.0000   0.0000   0.0000   0.4128
   3.000   0.9019   0.02732   0.01893  -0.1452  0.6897  1.0000  -1.3943   0.0000   0.0000   0.0000   0.4054
   3.250   0.9523   0.02674   0.01817  -0.1474  0.6692  1.0000  -1.4663   0.0000   0.0000   0.0000   0.3988
   3.500   0.9951   0.02654   0.01778  -0.1486  0.6472  1.0000  -1.5305   0.0000   0.0000   0.0000   0.3930
   3.750   1.0330   0.02660   0.01765  -0.1491  0.6247  1.0000  -1.5896   0.0000   0.0000   0.0000   0.3877
   4.000   1.0676   0.02684   0.01771  -0.1492  0.6026  1.0000  -1.6454   0.0000   0.0000   0.0000   0.3827
   4.250   1.0996   0.02723   0.01795  -0.1490  0.5810  1.0000  -1.7015   0.0000   0.0000   0.0000   0.3781
   4.500   1.1300   0.02773   0.01827  -0.1486  0.5602  1.0000  -1.7611   0.0000   0.0000   0.0000   0.3738
   4.750   1.1610   0.02826   0.01862  -0.1483  0.5404  1.0000  -1.8219   0.0000   0.0000   0.0000   0.3697
   5.000   1.1863   0.02896   0.01920  -0.1472  0.5212  1.0000  -1.8755   0.0000   0.0000   0.0000   0.3657
   5.250   1.2092   0.02978   0.01993  -0.1458  0.5031  1.0000  -1.9257   0.0000   0.0000   0.0000   0.3618
   5.500   1.2385   0.03044   0.02046  -0.1453  0.4858  1.0000  -1.9853   0.0000   0.0000   0.0000   0.3582
   5.750   1.2580   0.03135   0.02134  -0.1435  0.4688  1.0000  -2.0358   0.0000   0.0000   0.0000   0.3546
   6.000   1.2861   0.03209   0.02190  -0.1429  0.4531  1.0000  -2.0994   0.0000   0.0000   0.0000   0.3513
   6.250   1.3033   0.03313   0.02295  -0.1407  0.4380  1.0000  -2.1465   0.0000   0.0000   0.0000   0.3478
   6.500   1.3267   0.03406   0.02381  -0.1395  0.4239  1.0000  -2.2030   0.0000   0.0000   0.0000   0.3447
   6.750   1.3530   0.03496   0.02459  -0.1388  0.4106  1.0000  -2.2700   0.0000   0.0000   0.0000   0.3417
   7.000   1.3743   0.03608   0.02567  -0.1374  0.3984  1.0000  -2.3284   0.0000   0.0000   0.0000   0.3387
   7.250   1.3939   0.03733   0.02704  -0.1358  0.3871  1.0000  -2.3833   0.0000   0.0000   0.0000   0.3358
   7.500   1.4151   0.03861   0.02832  -0.1345  0.3766  1.0000  -2.4404   0.0000   0.0000   0.0000   0.3331
   7.750   1.4346   0.03995   0.02969  -0.1329  0.3665  1.0000  -2.4949   0.0000   0.0000   0.0000   0.3303
   8.000   1.4465   0.04152   0.03138  -0.1304  0.3569  1.0000  -2.5364   0.0000   0.0000   0.0000   0.3274
   8.250   1.4574   0.04316   0.03315  -0.1277  0.3478  1.0000  -2.5760   0.0000   0.0000   0.0000   0.3246
   8.500   1.4685   0.04481   0.03490  -0.1252  0.3389  1.0000  -2.6164   0.0000   0.0000   0.0000   0.3218
   8.750   1.4839   0.04634   0.03647  -0.1232  0.3304  1.0000  -2.6713   0.0000   0.0000   0.0000   0.3192
   9.000   1.5082   0.04763   0.03771  -0.1224  0.3219  1.0000  -2.7562   0.0000   0.0000   0.0000   0.3170
   9.250   1.4988   0.05011   0.04049  -0.1175  0.3152  1.0000  -2.7728   0.0000   0.0000   0.0000   0.3139
   9.500   1.5054   0.05218   0.04267  -0.1148  0.3087  1.0000  -2.8237   0.0000   0.0000   0.0000   0.3113
   9.750   1.5119   0.05431   0.04492  -0.1121  0.3026  1.0000  -2.8735   0.0000   0.0000   0.0000   0.3089
  10.000   1.4972   0.05729   0.04812  -0.1072  0.2981  1.0000  -2.8776   0.0000   0.0000   0.0000   0.3060
  10.250   1.4566   0.06153   0.05267  -0.1004  0.2950  1.0000  -2.8246   0.0000   0.0000   0.0000   0.3030
  10.500   1.4800   0.06299   0.05411  -0.0997  0.2886  1.0000  -2.9117   0.0000   0.0000   0.0000   0.3010
  10.750   1.3957   0.07095   0.06246  -0.0922  0.2882  1.0000  -2.7534   0.0000   0.0000   0.0000   0.2995
  15.000   1.0183   0.20398   0.19651  -0.1482  0.2985  1.0000  -1.4963   0.0000   0.0000   0.0000   0.3754
  15.500   1.0317   0.20969   0.20225  -0.1511  0.2849  1.0000  -1.4991   0.0000   0.0000   0.0000   0.3754
  16.000   1.0501   0.21567   0.20828  -0.1534  0.2713  1.0000  -1.5125   0.0000   0.0000   0.0000   0.3741
  16.500   1.0647   0.22178   0.21443  -0.1566  0.2612  1.0000  -1.5051   0.0000   0.0000   0.0000   0.3741
  17.000   1.0799   0.22785   0.22054  -0.1598  0.2512  1.0000  -1.5341   0.0000   0.0000   0.0000   0.3740
  17.500   1.0967   0.23370   0.22644  -0.1627  0.2396  1.0000  -1.5987   0.0000   0.0000   0.0000   0.3734
  18.000   1.1119   0.23969   0.23248  -0.1662  0.2306  1.0000  -1.6519   0.0000   0.0000   0.0000   0.3735
  18.500   1.1350   0.24720   0.24012  -0.1684  0.2239  1.0000  -1.7383   0.0000   0.0000   0.0000   0.3713
  19.500   0.8641   0.24660   0.24108  -0.1432  0.2004  1.0000  -1.1508   0.0000   0.0000   0.0000   0.3916
  20.000   0.8843   0.25486   0.24944  -0.1440  0.1923  1.0000  -1.2260   0.0000   0.0000   0.0000   0.3877


