xflr5 v6.61

 Calculated polar for: E63_8_00

 1 1 Reynolds number fixed          Mach number fixed         

 xtrf =   1.000 (top)        1.000 (bottom)
 Mach =   0.200     Re =     0.070 e 6     Ncrit =   9.000

  alpha     CL        CD       CDp       Cm    Top Xtr Bot Xtr   Cpmin    Chinge    XCp    
 ------- -------- --------- --------- -------- ------- ------- -------- --------- ---------
 -17.500  -0.5111   0.22069   0.21355  -0.0072  1.0000  0.0472  -1.3476   0.0000   0.0000   0.0000   0.2242
 -17.000  -0.4952   0.21417   0.20705  -0.0087  1.0000  0.0489  -1.3092   0.0000   0.0000   0.0000   0.2210
 -16.500  -0.4807   0.20853   0.20144  -0.0106  1.0000  0.0510  -1.2960   0.0000   0.0000   0.0000   0.2168
 -16.000  -0.4669   0.20318   0.19612  -0.0127  1.0000  0.0532  -1.2963   0.0000   0.0000   0.0000   0.2121
 -15.500  -0.4554   0.19891   0.19190  -0.0152  1.0000  0.0551  -1.3255   0.0000   0.0000   0.0000   0.2061
 -15.000  -0.4499   0.19712   0.19019  -0.0185  1.0000  0.0557  -1.3949   0.0000   0.0000   0.0000   0.1991
 -14.500  -0.4304   0.18721   0.18032  -0.0186  1.0000  0.0570  -1.3193   0.0000   0.0000   0.0000   0.1969
 -14.000  -0.4155   0.18067   0.17382  -0.0192  1.0000  0.0594  -1.2645   0.0000   0.0000   0.0000   0.1940
 -13.500  -0.4034   0.17517   0.16833  -0.0204  1.0000  0.0622  -1.2446   0.0000   0.0000   0.0000   0.1898
 -13.000  -0.3956   0.17104   0.16427  -0.0225  1.0000  0.0650  -1.2690   0.0000   0.0000   0.0000   0.1841
 -12.000  -0.3717   0.15855   0.15191  -0.0235  1.0000  0.0700  -1.2078   0.0000   0.0000   0.0000   0.1781
 -11.500  -0.3640   0.15383   0.14727  -0.0246  1.0000  0.0742  -1.2373   0.0000   0.0000   0.0000   0.1742
 -11.000  -0.3715   0.15304   0.14661  -0.0273  1.0000  0.0757  -1.3606   0.0000   0.0000   0.0000   0.1691
 -10.500  -0.3466   0.14239   0.13601  -0.0252  1.0000  0.0790  -1.2661   0.0000   0.0000   0.0000   0.1695
 -10.000  -0.3391   0.13727   0.13097  -0.0252  1.0000  0.0835  -1.2784   0.0000   0.0000   0.0000   0.1680
  -9.750  -0.3402   0.13574   0.12951  -0.0259  1.0000  0.0854  -1.3181   0.0000   0.0000   0.0000   0.1667
  -9.500  -0.3472   0.13538   0.12924  -0.0269  1.0000  0.0862  -1.3844   0.0000   0.0000   0.0000   0.1657
  -9.000  -0.3293   0.12696   0.12084  -0.0250  1.0000  0.0895  -1.3278   0.0000   0.0000   0.0000   0.1673
  -8.750  -0.3258   0.12438   0.11830  -0.0245  1.0000  0.0921  -1.3247   0.0000   0.0000   0.0000   0.1682
  -8.500  -0.3260   0.12239   0.11638  -0.0244  1.0000  0.0948  -1.3446   0.0000   0.0000   0.0000   0.1689
  -8.250  -0.3336   0.12166   0.11574  -0.0247  1.0000  0.0965  -1.4004   0.0000   0.0000   0.0000   0.1699
  -8.000  -0.3468   0.12172   0.11592  -0.0250  1.0000  0.0970  -1.4728   0.0000   0.0000   0.0000   0.1726
  -7.750  -0.3264   0.11538   0.10958  -0.0229  1.0000  0.0994  -1.3883   0.0000   0.0000   0.0000   0.1741
  -7.500  -0.3233   0.11281   0.10706  -0.0218  1.0000  0.1022  -1.3757   0.0000   0.0000   0.0000   0.1771
  -7.250  -0.3263   0.11103   0.10536  -0.0210  1.0000  0.1050  -1.3922   0.0000   0.0000   0.0000   0.1805
  -7.000  -0.3387   0.11052   0.10496  -0.0203  1.0000  0.1069  -1.4445   0.0000   0.0000   0.0000   0.1855
  -6.750  -0.3581   0.11075   0.10533  -0.0189  1.0000  0.1076  -1.5113   0.0000   0.0000   0.0000   0.1931
  -6.500  -0.3415   0.10546   0.10006  -0.0173  1.0000  0.1099  -1.4470   0.0000   0.0000   0.0000   0.1953
  -6.250  -0.3411   0.10313   0.09779  -0.0154  1.0000  0.1128  -1.4312   0.0000   0.0000   0.0000   0.2010
  -6.000  -0.3489   0.10169   0.09644  -0.0137  1.0000  0.1156  -1.4484   0.0000   0.0000   0.0000   0.2070
  -5.750  -0.3597   0.10084   0.09570  -0.0154  1.0000  0.1181  -1.5126   0.0000   0.0000   0.0000   0.2039
  -5.500  -0.3599   0.09805   0.09299  -0.0155  1.0000  0.1195  -1.5264   0.0000   0.0000   0.0000   0.2036
  -5.250  -0.3539   0.09490   0.08988  -0.0124  1.0000  0.1227  -1.4748   0.0000   0.0000   0.0000   0.2119
  -5.000  -0.3534   0.09281   0.08785  -0.0137  1.0000  0.1276  -1.4903   0.0000   0.0000   0.0000   0.2082
  -4.500  -0.3457   0.08749   0.08266  -0.0144  1.0000  0.1369  -1.4760   0.0000   0.0000   0.0000   0.2056
  -4.250  -0.3250   0.08164   0.07727  -0.0090  1.0000  0.1455  -1.3225   0.0000   0.0000   0.0000   0.2206
  -3.750  -0.3196   0.07886   0.07415  -0.0199  1.0000  0.1557  -1.4518   0.0000   0.0000   0.0000   0.1850
  -3.500  -0.3008   0.07544   0.07074  -0.0257  1.0000  0.1641  -1.4527   0.0000   0.0000   0.0000   0.1620
  -3.250  -0.2769   0.07197   0.06720  -0.0319  1.0000  0.1742  -1.4410   0.0000   0.0000   0.0000   0.1321
  -3.000  -0.2527   0.06859   0.06380  -0.0367  1.0000  0.1849  -1.4134   0.0000   0.0000   0.0000   0.1019
  -2.250  -0.0024   0.04051   0.03380  -0.0958  1.0000  0.0969  -1.8257   0.0000   0.0000   0.0000  -40.0337
  -2.000   0.0478   0.03650   0.02941  -0.1022  1.0000  0.0933  -1.8131   0.0000   0.0000   0.0000   2.4022
  -1.750   0.1156   0.03202   0.02383  -0.1112  1.0000  0.0953  -1.8568   0.0000   0.0000   0.0000   1.2182
  -1.500   0.1606   0.03000   0.02122  -0.1149  1.0000  0.1084  -1.8242   0.0000   0.0000   0.0000   0.9690
  -1.250   0.1920   0.02940   0.02042  -0.1162  1.0000  0.1301  -1.7168   0.0000   0.0000   0.0000   0.8578
  -1.000   0.2159   0.02951   0.02068  -0.1165  1.0000  0.1575  -1.5659   0.0000   0.0000   0.0000   0.7914
  -0.750   0.2456   0.02918   0.02021  -0.1175  1.0000  0.1817  -1.4368   0.0000   0.0000   0.0000   0.7293
  -0.500   0.2756   0.02885   0.01984  -0.1184  1.0000  0.2085  -1.3293   0.0000   0.0000   0.0000   0.6801
  -0.250   0.3032   0.02890   0.01997  -0.1191  1.0000  0.2510  -1.2154   0.0000   0.0000   0.0000   0.6430
   0.000   0.3301   0.02909   0.02032  -0.1198  1.0000  0.3053  -1.0947   0.0000   0.0000   0.0000   0.6127
   0.250   0.3739   0.02932   0.02078  -0.1233  0.9935  0.3926  -0.9274   0.0000   0.0000   0.0000   0.5790
   0.500   0.4258   0.02924   0.02128  -0.1277  0.9831  0.5460  -0.7375   0.0000   0.0000   0.0000   0.5489
   0.750   0.4610   0.02838   0.02121  -0.1284  0.9697  1.0000  -0.6117   0.0000   0.0000   0.0000   0.5271
   1.000   0.5093   0.02890   0.02133  -0.1327  0.9538  1.0000  -0.6542   0.0000   0.0000   0.0000   0.5089
   1.250   0.5576   0.02930   0.02146  -0.1367  0.9389  1.0000  -0.6999   0.0000   0.0000   0.0000   0.4932
   1.500   0.6042   0.02954   0.02152  -0.1402  0.9234  1.0000  -0.7460   0.0000   0.0000   0.0000   0.4798
   1.750   0.6534   0.02961   0.02145  -0.1439  0.9088  1.0000  -0.7973   0.0000   0.0000   0.0000   0.4676
   2.000   0.6975   0.02953   0.02129  -0.1464  0.8918  1.0000  -0.8502   0.0000   0.0000   0.0000   0.4571
   2.250   0.7453   0.02922   0.02093  -0.1492  0.8762  1.0000  -0.9104   0.0000   0.0000   0.0000   0.4471
   2.500   0.7910   0.02877   0.02046  -0.1514  0.8596  1.0000  -0.9739   0.0000   0.0000   0.0000   0.4381
   2.750   0.8379   0.02812   0.01982  -0.1535  0.8436  1.0000  -1.0410   0.0000   0.0000   0.0000   0.4296
   3.000   0.8854   0.02722   0.01896  -0.1554  0.8274  1.0000  -1.1115   0.0000   0.0000   0.0000   0.4216
   3.250   0.9410   0.02576   0.01754  -0.1580  0.8141  1.0000  -1.1986   0.0000   0.0000   0.0000   0.4137
   3.500   0.9875   0.02463   0.01651  -0.1593  0.7946  1.0000  -1.2800   0.0000   0.0000   0.0000   0.4068
   3.750   1.0413   0.02329   0.01523  -0.1615  0.7736  1.0000  -1.3755   0.0000   0.0000   0.0000   0.4004
   4.000   1.0975   0.02202   0.01403  -0.1642  0.7482  1.0000  -1.4794   0.0000   0.0000   0.0000   0.3946
   4.250   1.1433   0.02134   0.01332  -0.1654  0.7145  1.0000  -1.5723   0.0000   0.0000   0.0000   0.3893
   4.500   1.1830   0.02109   0.01297  -0.1658  0.6753  1.0000  -1.6875   0.0000   0.0000   0.0000   0.3845
   4.750   1.2160   0.02125   0.01296  -0.1652  0.6336  1.0000  -1.7925   0.0000   0.0000   0.0000   0.3799
   5.000   1.2451   0.02167   0.01325  -0.1641  0.5923  1.0000  -1.8914   0.0000   0.0000   0.0000   0.3755
   5.250   1.2718   0.02229   0.01363  -0.1628  0.5527  1.0000  -1.9869   0.0000   0.0000   0.0000   0.3714
   5.500   1.2945   0.02306   0.01423  -0.1610  0.5150  1.0000  -2.0749   0.0000   0.0000   0.0000   0.3674
   5.750   1.3172   0.02393   0.01491  -0.1593  0.4800  1.0000  -2.1635   0.0000   0.0000   0.0000   0.3636
   6.000   1.3392   0.02486   0.01568  -0.1576  0.4477  1.0000  -2.2723   0.0000   0.0000   0.0000   0.3600
   6.250   1.3613   0.02587   0.01653  -0.1560  0.4179  1.0000  -2.4174   0.0000   0.0000   0.0000   0.3566
   6.500   1.3828   0.02692   0.01745  -0.1543  0.3901  1.0000  -2.5629   0.0000   0.0000   0.0000   0.3532
   6.750   1.4045   0.02804   0.01847  -0.1527  0.3647  1.0000  -2.7106   0.0000   0.0000   0.0000   0.3500
   7.000   1.4251   0.02921   0.01973  -0.1510  0.3408  1.0000  -2.8558   0.0000   0.0000   0.0000   0.3469
   7.250   1.4464   0.03045   0.02093  -0.1494  0.3191  1.0000  -3.0049   0.0000   0.0000   0.0000   0.3439
   7.500   1.4685   0.03175   0.02218  -0.1480  0.2992  1.0000  -3.1675   0.0000   0.0000   0.0000   0.3410
   7.750   1.4890   0.03307   0.02351  -0.1464  0.2802  1.0000  -3.3405   0.0000   0.0000   0.0000   0.3381
   8.000   1.5045   0.03424   0.02474  -0.1439  0.2610  1.0000  -3.5007   0.0000   0.0000   0.0000   0.3351
   8.250   1.5181   0.03528   0.02580  -0.1413  0.2422  1.0000  -3.6611   0.0000   0.0000   0.0000   0.3321
   8.500   1.5319   0.03625   0.02666  -0.1387  0.2242  1.0000  -3.8291   0.0000   0.0000   0.0000   0.3293
   8.750   1.5408   0.03738   0.02798  -0.1354  0.2076  1.0000  -3.9702   0.0000   0.0000   0.0000   0.3262
   9.000   1.5542   0.03854   0.02909  -0.1329  0.1927  1.0000  -4.1352   0.0000   0.0000   0.0000   0.3235
   9.250   1.5675   0.04016   0.03087  -0.1304  0.1796  1.0000  -4.2836   0.0000   0.0000   0.0000   0.3207
   9.500   1.5807   0.04197   0.03296  -0.1279  0.1672  1.0000  -4.4258   0.0000   0.0000   0.0000   0.3181
   9.750   1.5906   0.04375   0.03491  -0.1250  0.1548  1.0000  -4.5562   0.0000   0.0000   0.0000   0.3154
  10.000   1.5967   0.04544   0.03672  -0.1217  0.1428  1.0000  -4.6748   0.0000   0.0000   0.0000   0.3126
  10.250   1.6026   0.04750   0.03894  -0.1184  0.1321  1.0000  -4.7789   0.0000   0.0000   0.0000   0.3098
  10.500   1.6072   0.04990   0.04154  -0.1150  0.1225  1.0000  -4.8629   0.0000   0.0000   0.0000   0.3071
  10.750   1.6069   0.05216   0.04396  -0.1112  0.1138  1.0000  -4.9345   0.0000   0.0000   0.0000   0.3044
  11.000   1.6090   0.05464   0.04653  -0.1079  0.1056  1.0000  -5.0078   0.0000   0.0000   0.0000   0.3019
  11.250   1.6064   0.05756   0.04971  -0.1043  0.0991  1.0000  -5.0437   0.0000   0.0000   0.0000   0.2993
  11.500   1.5995   0.06119   0.05365  -0.1007  0.0944  1.0000  -5.0496   0.0000   0.0000   0.0000   0.2970
  11.750   1.5886   0.06493   0.05775  -0.0972  0.0908  1.0000  -5.0405   0.0000   0.0000   0.0000   0.2948
  12.000   1.5940   0.06839   0.06121  -0.0953  0.0864  1.0000  -5.1064   0.0000   0.0000   0.0000   0.2930
  12.250   1.5703   0.07306   0.06635  -0.0920  0.0855  1.0000  -5.0419   0.0000   0.0000   0.0000   0.2914
  12.500   1.5454   0.07822   0.07190  -0.0898  0.0848  1.0000  -4.9731   0.0000   0.0000   0.0000   0.2905
  12.750   1.5190   0.08394   0.07798  -0.0888  0.0845  1.0000  -4.8957   0.0000   0.0000   0.0000   0.2905
  13.000   1.4907   0.09034   0.08470  -0.0891  0.0844  1.0000  -4.8060   0.0000   0.0000   0.0000   0.2914
  13.250   1.4608   0.09758   0.09221  -0.0910  0.0847  1.0000  -4.7011   0.0000   0.0000   0.0000   0.2935
  13.500   1.4302   0.10573   0.10060  -0.0944  0.0852  1.0000  -4.5793   0.0000   0.0000   0.0000   0.2968
  13.750   1.3998   0.11485   0.10991  -0.0995  0.0859  1.0000  -4.4394   0.0000   0.0000   0.0000   0.3015
  14.000   1.3707   0.12491   0.12010  -0.1058  0.0866  1.0000  -4.2797   0.0000   0.0000   0.0000   0.3073
  14.500   1.2264   0.17995   0.17491  -0.1476  0.1049  1.0000  -2.8689   0.0000   0.0000   0.0000   0.3518
  14.750   1.2211   0.18808   0.18302  -0.1527  0.1048  1.0000  -2.7304   0.0000   0.0000   0.0000   0.3563
  15.000   1.2201   0.19526   0.19018  -0.1569  0.1055  1.0000  -2.6228   0.0000   0.0000   0.0000   0.3595
  15.250   1.2257   0.20123   0.19616  -0.1593  0.1067  1.0000  -2.5695   0.0000   0.0000   0.0000   0.3606


