xflr5 v6.61

 Calculated polar for: E63_4_27

 1 1 Reynolds number fixed          Mach number fixed         

 xtrf =   1.000 (top)        1.000 (bottom)
 Mach =   0.200     Re =     0.025 e 6     Ncrit =   7.000

  alpha     CL        CD       CDp       Cm    Top Xtr Bot Xtr   Cpmin    Chinge    XCp    
 ------- -------- --------- --------- -------- ------- ------- -------- --------- ---------
 -29.500  -0.9152   0.35317   0.34211   0.0872  1.0000  0.0378  -1.6302   0.0000   0.0000   0.0000   0.3293
 -29.000  -0.9027   0.34558   0.33446   0.0833  1.0000  0.0392  -1.5984   0.0000   0.0000   0.0000   0.3271
 -28.500  -0.8899   0.34031   0.32912   0.0791  1.0000  0.0407  -1.5853   0.0000   0.0000   0.0000   0.3244
 -28.000  -0.8769   0.33550   0.32426   0.0748  1.0000  0.0422  -1.5787   0.0000   0.0000   0.0000   0.3216
 -27.500  -0.8635   0.33106   0.31979   0.0704  1.0000  0.0437  -1.5762   0.0000   0.0000   0.0000   0.3186
 -27.000  -0.8501   0.32726   0.31596   0.0660  1.0000  0.0450  -1.5800   0.0000   0.0000   0.0000   0.3153
 -26.500  -0.8368   0.32491   0.31360   0.0613  1.0000  0.0457  -1.5922   0.0000   0.0000   0.0000   0.3117
 -26.000  -0.8238   0.32300   0.31169   0.0567  1.0000  0.0462  -1.6050   0.0000   0.0000   0.0000   0.3080
 -25.500  -0.8085   0.31174   0.30037   0.0538  1.0000  0.0479  -1.5415   0.0000   0.0000   0.0000   0.3061
 -25.000  -0.7941   0.30587   0.29447   0.0501  1.0000  0.0500  -1.5084   0.0000   0.0000   0.0000   0.3032
 -24.500  -0.7797   0.30085   0.28943   0.0462  1.0000  0.0523  -1.4842   0.0000   0.0000   0.0000   0.3000
 -24.000  -0.7654   0.29674   0.28531   0.0422  1.0000  0.0544  -1.4684   0.0000   0.0000   0.0000   0.2964
 -23.500  -0.7517   0.29447   0.28301   0.0379  1.0000  0.0555  -1.4650   0.0000   0.0000   0.0000   0.2922
 -23.000  -0.7368   0.28791   0.27648   0.0344  1.0000  0.0566  -1.4281   0.0000   0.0000   0.0000   0.2890
 -22.500  -0.7210   0.28027   0.26882   0.0315  1.0000  0.0592  -1.3903   0.0000   0.0000   0.0000   0.2863
 -22.000  -0.7060   0.27493   0.26346   0.0281  1.0000  0.0619  -1.3834   0.0000   0.0000   0.0000   0.2829
 -21.500  -0.6916   0.27066   0.25920   0.0245  1.0000  0.0643  -1.3896   0.0000   0.0000   0.0000   0.2789
 -21.000  -0.6783   0.26829   0.25686   0.0206  1.0000  0.0656  -1.4116   0.0000   0.0000   0.0000   0.2743
 -20.500  -0.6619   0.25997   0.24851   0.0180  1.0000  0.0675  -1.3806   0.0000   0.0000   0.0000   0.2714
 -20.000  -0.6462   0.25367   0.24221   0.0152  1.0000  0.0709  -1.3537   0.0000   0.0000   0.0000   0.2681
 -19.500  -0.6319   0.24927   0.23783   0.0120  1.0000  0.0740  -1.3480   0.0000   0.0000   0.0000   0.2638
 -19.000  -0.6201   0.24740   0.23601   0.0083  1.0000  0.0756  -1.3643   0.0000   0.0000   0.0000   0.2587
 -18.500  -0.6021   0.23776   0.22640   0.0065  1.0000  0.0789  -1.3068   0.0000   0.0000   0.0000   0.2561
 -18.000  -0.5874   0.23233   0.22099   0.0039  1.0000  0.0834  -1.2791   0.0000   0.0000   0.0000   0.2522
 -17.500  -0.5761   0.22990   0.21862   0.0006  1.0000  0.0861  -1.2824   0.0000   0.0000   0.0000   0.2471
 -17.000  -0.5588   0.22138   0.21007  -0.0011  1.0000  0.0899  -1.2268   0.0000   0.0000   0.0000   0.2441
 -16.500  -0.5453   0.21642   0.20516  -0.0035  1.0000  0.0950  -1.2313   0.0000   0.0000   0.0000   0.2399
 -16.000  -0.5360   0.21414   0.20299  -0.0064  1.0000  0.0973  -1.2678   0.0000   0.0000   0.0000   0.2346
 -15.500  -0.5174   0.20477   0.19362  -0.0076  1.0000  0.1031  -1.2296   0.0000   0.0000   0.0000   0.2320
 -15.000  -0.5082   0.20189   0.19082  -0.0101  1.0000  0.1073  -1.2563   0.0000   0.0000   0.0000   0.2270
 -14.500  -0.4916   0.19375   0.18273  -0.0113  1.0000  0.1123  -1.2294   0.0000   0.0000   0.0000   0.2240
 -14.000  -0.4824   0.19005   0.17912  -0.0133  1.0000  0.1179  -1.2439   0.0000   0.0000   0.0000   0.2195
 -13.500  -0.4673   0.18270   0.17176  -0.0144  1.0000  0.1232  -1.2202   0.0000   0.0000   0.0000   0.2163
 -13.000  -0.4604   0.17944   0.16860  -0.0162  1.0000  0.1291  -1.2356   0.0000   0.0000   0.0000   0.2121
 -12.500  -0.4449   0.17175   0.16098  -0.0169  1.0000  0.1363  -1.2002   0.0000   0.0000   0.0000   0.2094
 -12.000  -0.4369   0.16707   0.15642  -0.0181  1.0000  0.1420  -1.2002   0.0000   0.0000   0.0000   0.2059
 -11.500  -0.4291   0.16252   0.15197  -0.0191  1.0000  0.1506  -1.1917   0.0000   0.0000   0.0000   0.2030
 -11.000  -0.4169   0.15593   0.14549  -0.0194  1.0000  0.1603  -1.1587   0.0000   0.0000   0.0000   0.2009
 -10.500  -0.4072   0.15016   0.13983  -0.0197  1.0000  0.1704  -1.1324   0.0000   0.0000   0.0000   0.1991
 -10.000  -0.3993   0.14485   0.13466  -0.0199  1.0000  0.1816  -1.1097   0.0000   0.0000   0.0000   0.1978
  -9.500  -0.3935   0.13999   0.12995  -0.0198  1.0000  0.1936  -1.1218   0.0000   0.0000   0.0000   0.1972
  -9.000  -0.3907   0.13577   0.12581  -0.0196  1.0000  0.2058  -1.1403   0.0000   0.0000   0.0000   0.1976
  -8.500  -0.3781   0.12877   0.11895  -0.0185  1.0000  0.2218  -1.1300   0.0000   0.0000   0.0000   0.1987
  -8.000  -0.3781   0.12484   0.11522  -0.0173  1.0000  0.2380  -1.1479   0.0000   0.0000   0.0000   0.2019
  -7.500  -0.3700   0.11884   0.10940  -0.0156  1.0000  0.2567  -1.1453   0.0000   0.0000   0.0000   0.2057
  -6.500  -0.3680   0.10933   0.10033  -0.0103  1.0000  0.3006  -1.1580   0.0000   0.0000   0.0000   0.2200
  -5.000  -0.3629   0.09439   0.08607   0.0003  1.0000  0.4144  -1.1517   0.0000   0.0000   0.0000   0.2490
  -4.000  -0.1110   0.05729   0.04816  -0.0121  1.0000  0.9555  -0.8605   0.0000   0.0000   0.0000   0.1354
  -3.500  -0.1239   0.05525   0.04643  -0.0058  1.0000  0.9397  -0.8705   0.0000   0.0000   0.0000   0.1994
  -3.000  -0.1660   0.05513   0.04674   0.0062  1.0000  0.8996  -0.9044   0.0000   0.0000   0.0000   0.2850
  -2.000  -0.0214   0.05282   0.04354  -0.0799  1.0000  0.1962  -1.2496   0.0000   0.0000   0.0000  -3.5142
  -1.500   0.1231   0.04369   0.03309  -0.1048  1.0000  0.1443  -1.3234   0.0000   0.0000   0.0000   1.1052
  -1.000   0.2490   0.03755   0.02524  -0.1213  1.0000  0.1389  -1.4035   0.0000   0.0000   0.0000   0.7384
  -0.500   0.3329   0.03427   0.02071  -0.1269  1.0000  0.1732  -1.3843   0.0000   0.0000   0.0000   0.6318
   0.000   0.4086   0.03129   0.01761  -0.1302  1.0000  0.3000  -1.3618   0.0000   0.0000   0.0000   0.5686
   0.500   0.4620   0.02854   0.01539  -0.1280  1.0000  1.0000  -1.2878   0.0000   0.0000   0.0000   0.5264
   1.000   0.5122   0.02969   0.01549  -0.1278  1.0000  1.0000  -0.8602   0.0000   0.0000   0.0000   0.4984
   1.500   0.5591   0.03104   0.01621  -0.1275  1.0000  1.0000  -0.5483   0.0000   0.0000   0.0000   0.4765
   2.000   0.6034   0.03263   0.01747  -0.1272  1.0000  1.0000  -0.5980   0.0000   0.0000   0.0000   0.4588
   2.500   0.6450   0.03449   0.01923  -0.1269  1.0000  1.0000  -0.6550   0.0000   0.0000   0.0000   0.4442
   3.000   0.6838   0.03670   0.02147  -0.1267  1.0000  1.0000  -0.7197   0.0000   0.0000   0.0000   0.4322
   3.500   0.7195   0.03934   0.02429  -0.1266  1.0000  1.0000  -0.7870   0.0000   0.0000   0.0000   0.4225
   4.000   0.7515   0.04253   0.02782  -0.1268  1.0000  1.0000  -0.8589   0.0000   0.0000   0.0000   0.4148
   4.500   0.7794   0.04640   0.03207  -0.1275  1.0000  1.0000  -0.9378   0.0000   0.0000   0.0000   0.4092
   5.000   0.8828   0.05097   0.03766  -0.1416  0.9331  1.0000  -1.2455   0.0000   0.0000   0.0000   0.4054
   5.500   1.0006   0.05247   0.04046  -0.1522  0.8406  1.0000  -1.8426   0.0000   0.0000   0.0000   0.3967
   6.500   1.2626   0.04119   0.03080  -0.1367  0.3555  1.0000  -3.5149   0.0000   0.0000   0.0000   0.3515
   7.000   1.2847   0.04926   0.03753  -0.1290  0.2036  1.0000  -3.6109   0.0000   0.0000   0.0000   0.3430
   7.500   1.3275   0.05727   0.04563  -0.1263  0.1387  1.0000  -3.9135   0.0000   0.0000   0.0000   0.3371
   8.000   1.3711   0.06715   0.05679  -0.1242  0.1190  1.0000  -4.2268   0.0000   0.0000   0.0000   0.3320
   8.500   1.3783   0.07778   0.06865  -0.1198  0.1152  1.0000  -4.2895   0.0000   0.0000   0.0000   0.3279
   9.000   1.3609   0.08843   0.08021  -0.1154  0.1147  1.0000  -4.2306   0.0000   0.0000   0.0000   0.3254
   9.500   1.3281   0.09888   0.09119  -0.1120  0.1156  1.0000  -4.1048   0.0000   0.0000   0.0000   0.3245
  10.000   1.2924   0.11025   0.10285  -0.1119  0.1170  1.0000  -3.9469   0.0000   0.0000   0.0000   0.3263
  10.500   1.2388   0.12554   0.11833  -0.1206  0.1221  1.0000  -3.5395   0.0000   0.0000   0.0000   0.3366
  11.000   1.2169   0.14141   0.13415  -0.1305  0.1259  1.0000  -3.2850   0.0000   0.0000   0.0000   0.3461
  11.500   1.2061   0.15644   0.14911  -0.1401  0.1304  1.0000  -3.0762   0.0000   0.0000   0.0000   0.3545
  12.000   1.2015   0.17020   0.16276  -0.1486  0.1366  1.0000  -2.9119   0.0000   0.0000   0.0000   0.3616
  12.500   1.2017   0.18318   0.17566  -0.1569  0.1466  1.0000  -2.7675   0.0000   0.0000   0.0000   0.3680
  13.000   1.2063   0.19639   0.18884  -0.1657  0.1683  1.0000  -2.6187   0.0000   0.0000   0.0000   0.3743
  13.500   0.9616   0.20364   0.19689  -0.1537  0.3062  1.0000  -1.5547   0.0000   0.0000   0.0000   0.3968
  14.000   0.9625   0.21140   0.20474  -0.1562  0.3046  1.0000  -1.5625   0.0000   0.0000   0.0000   0.3986
  14.500   0.9678   0.21981   0.21323  -0.1583  0.2992  1.0000  -1.5904   0.0000   0.0000   0.0000   0.3993
  15.000   0.9740   0.22813   0.22164  -0.1602  0.2893  1.0000  -1.6223   0.0000   0.0000   0.0000   0.3995
  15.500   0.9782   0.23586   0.22944  -0.1622  0.2784  1.0000  -1.6405   0.0000   0.0000   0.0000   0.4001
  16.000   0.9805   0.24299   0.23664  -0.1643  0.2669  1.0000  -1.6443   0.0000   0.0000   0.0000   0.4011
  16.500   0.9817   0.24959   0.24330  -0.1665  0.2521  1.0000  -1.6387   0.0000   0.0000   0.0000   0.4023
  17.000   0.9930   0.25919   0.25297  -0.1679  0.2351  1.0000  -1.6700   0.0000   0.0000   0.0000   0.4011
  17.500   0.9953   0.26643   0.26042  -0.1703  0.2234  1.0000  -1.6470   0.0000   0.0000   0.0000   0.4022
  18.000   1.0010   0.27488   0.26895  -0.1725  0.2130  1.0000  -1.6311   0.0000   0.0000   0.0000   0.4026
  18.500   1.0073   0.28367   0.27780  -0.1746  0.2026  1.0000  -1.6108   0.0000   0.0000   0.0000   0.4028
  19.000   1.0143   0.29284   0.28704  -0.1768  0.1923  1.0000  -1.5872   0.0000   0.0000   0.0000   0.4029
  19.500   1.0154   0.29984   0.29411  -0.1795  0.1829  1.0000  -1.5433   0.0000   0.0000   0.0000   0.4045
  20.000   1.0192   0.30805   0.30238  -0.1821  0.1730  1.0000  -1.5437   0.0000   0.0000   0.0000   0.4054


