xflr5 v6.61

 Calculated polar for: E63_14_00

 1 1 Reynolds number fixed          Mach number fixed         

 xtrf =   1.000 (top)        1.000 (bottom)
 Mach =   0.200     Re =     0.070 e 6     Ncrit =   9.000

  alpha     CL        CD       CDp       Cm    Top Xtr Bot Xtr   Cpmin    Chinge    XCp    
 ------- -------- --------- --------- -------- ------- ------- -------- --------- ---------
 -20.000  -0.3126   0.21480   0.20826  -0.0221  1.0000  0.0749  -0.9132   0.0000   0.0000   0.0000   0.1572
 -19.500  -0.3139   0.21443   0.20792  -0.0243  1.0000  0.0760  -0.9771   0.0000   0.0000   0.0000   0.1507
 -18.500  -0.4472   0.22768   0.22016  -0.0142  1.0000  0.0778  -1.3236   0.0000   0.0000   0.0000   0.1880
 -18.000  -0.4307   0.22214   0.21464  -0.0157  1.0000  0.0808  -1.2855   0.0000   0.0000   0.0000   0.1837
 -17.500  -0.4172   0.21718   0.20971  -0.0178  1.0000  0.0841  -1.2962   0.0000   0.0000   0.0000   0.1779
 -17.000  -0.4121   0.21489   0.20750  -0.0212  1.0000  0.0862  -1.3709   0.0000   0.0000   0.0000   0.1700
 -16.500  -0.3949   0.20727   0.19994  -0.0222  1.0000  0.0874  -1.3484   0.0000   0.0000   0.0000   0.1654
 -16.000  -0.3766   0.20082   0.19354  -0.0225  1.0000  0.0902  -1.3013   0.0000   0.0000   0.0000   0.1617
 -15.500  -0.3637   0.19567   0.18844  -0.0238  1.0000  0.0940  -1.2966   0.0000   0.0000   0.0000   0.1563
 -15.000  -0.3620   0.19296   0.18582  -0.0267  1.0000  0.0968  -1.3668   0.0000   0.0000   0.0000   0.1492
 -14.500  -0.3447   0.18530   0.17823  -0.0268  1.0000  0.0985  -1.3299   0.0000   0.0000   0.0000   0.1450
 -14.000  -0.3290   0.17939   0.17235  -0.0269  1.0000  0.1023  -1.2905   0.0000   0.0000   0.0000   0.1414
 -13.500  -0.3254   0.17536   0.16840  -0.0285  1.0000  0.1070  -1.3297   0.0000   0.0000   0.0000   0.1362
 -13.000  -0.3157   0.16918   0.16232  -0.0290  1.0000  0.1092  -1.3310   0.0000   0.0000   0.0000   0.1326
 -12.500  -0.3016   0.16335   0.15655  -0.0284  1.0000  0.1145  -1.2943   0.0000   0.0000   0.0000   0.1302
 -12.000  -0.3175   0.16165   0.15498  -0.0310  1.0000  0.1187  -1.4167   0.0000   0.0000   0.0000   0.1293
 -11.500  -0.2886   0.15254   0.14593  -0.0285  1.0000  0.1248  -1.3309   0.0000   0.0000   0.0000   0.1272
 -11.000  -0.2940   0.14793   0.14145  -0.0293  1.0000  0.1306  -1.4310   0.0000   0.0000   0.0000   0.1279
 -10.500  -0.2947   0.14356   0.13717  -0.0288  1.0000  0.1399  -1.4929   0.0000   0.0000   0.0000   0.1310
 -10.000  -0.2977   0.13933   0.13306  -0.0280  1.0000  0.1510  -1.5419   0.0000   0.0000   0.0000   0.1363
  -9.750  -0.2791   0.13508   0.12882  -0.0258  1.0000  0.1594  -1.4764   0.0000   0.0000   0.0000   0.1370
  -9.500  -0.3005   0.13523   0.12907  -0.0266  1.0000  0.1621  -1.5648   0.0000   0.0000   0.0000   0.1432
  -9.250  -0.2767   0.13029   0.12413  -0.0243  1.0000  0.1674  -1.4771   0.0000   0.0000   0.0000   0.1430
  -9.000  -0.2839   0.12892   0.12282  -0.0239  1.0000  0.1719  -1.5025   0.0000   0.0000   0.0000   0.1477
  -8.500  -0.2825   0.12392   0.11790  -0.0219  1.0000  0.1761  -1.4896   0.0000   0.0000   0.0000   0.1554
  -8.250  -0.2808   0.12180   0.11583  -0.0206  1.0000  0.1796  -1.4719   0.0000   0.0000   0.0000   0.1600
  -8.000  -0.2963   0.12104   0.11515  -0.0200  1.0000  0.1834  -1.5145   0.0000   0.0000   0.0000   0.1672
  -7.750  -0.3048   0.11914   0.11334  -0.0191  1.0000  0.1849  -1.5324   0.0000   0.0000   0.0000   0.1733
  -7.500  -0.2923   0.11600   0.11023  -0.0171  1.0000  0.1877  -1.4713   0.0000   0.0000   0.0000   0.1772
  -7.250  -0.2949   0.11426   0.10855  -0.0156  1.0000  0.1914  -1.4599   0.0000   0.0000   0.0000   0.1836
  -7.000  -0.3206   0.11408   0.10848  -0.0146  1.0000  0.1947  -1.5239   0.0000   0.0000   0.0000   0.1927
  -6.750  -0.3211   0.11153   0.10600  -0.0129  1.0000  0.1964  -1.5055   0.0000   0.0000   0.0000   0.1983
  -6.500  -0.3137   0.10909   0.10360  -0.0109  1.0000  0.1994  -1.4558   0.0000   0.0000   0.0000   0.2041
  -6.250  -0.3235   0.10781   0.10240  -0.0090  1.0000  0.2032  -1.4595   0.0000   0.0000   0.0000   0.2117
  -6.000  -0.3614   0.10817   0.10290  -0.0067  1.0000  0.2058  -1.5436   0.0000   0.0000   0.0000   0.2225
  -5.750  -0.3565   0.10537   0.10015  -0.0048  1.0000  0.2077  -1.5031   0.0000   0.0000   0.0000   0.2278
  -5.500  -0.3530   0.10342   0.09826  -0.0026  1.0000  0.2118  -1.4593   0.0000   0.0000   0.0000   0.2344
  -5.250  -0.3796   0.10288   0.09783  -0.0008  1.0000  0.2159  -1.5080   0.0000   0.0000   0.0000   0.2405
  -5.000  -0.3874   0.10081   0.09583   0.0003  1.0000  0.2186  -1.5081   0.0000   0.0000   0.0000   0.2437
  -4.750  -0.3849   0.09904   0.09411   0.0026  1.0000  0.2237  -1.4641   0.0000   0.0000   0.0000   0.2501
  -4.500  -0.4031   0.09711   0.09227  -0.0001  1.0000  0.2287  -1.5188   0.0000   0.0000   0.0000   0.2435
  -4.250  -0.3967   0.09520   0.09041   0.0035  1.0000  0.2324  -1.4545   0.0000   0.0000   0.0000   0.2530
  -4.000  -0.3857   0.09216   0.08737  -0.0030  0.9953  0.2403  -1.4491   0.0000   0.0000   0.0000   0.2363
  -3.250  -0.2511   0.06865   0.06331  -0.0506  0.9623  0.1878  -1.5399   0.0000   0.0000   0.0000   0.0399
  -3.000  -0.1439   0.04856   0.04184  -0.0882  0.9591  0.1654  -1.8324   0.0000   0.0000   0.0000  -0.3790
  -2.750  -0.0942   0.04646   0.03944  -0.0944  0.9482  0.1776  -1.7640   0.0000   0.0000   0.0000  -0.7755
  -2.500  -0.0436   0.04449   0.03716  -0.1004  0.9374  0.1912  -1.6918   0.0000   0.0000   0.0000  -2.0983
  -2.250   0.0097   0.04248   0.03469  -0.1068  0.9268  0.2069  -1.6172   0.0000   0.0000   0.0000  11.4894
  -2.000   0.0556   0.04140   0.03347  -0.1106  0.9152  0.2189  -1.5375   0.0000   0.0000   0.0000   2.2676
  -1.750   0.1007   0.04062   0.03260  -0.1139  0.9035  0.2326  -1.4538   0.0000   0.0000   0.0000   1.3946
  -1.500   0.1489   0.03953   0.03127  -0.1178  0.8921  0.2452  -1.3737   0.0000   0.0000   0.0000   1.0487
  -1.250   0.1969   0.03863   0.03015  -0.1214  0.8806  0.2617  -1.2865   0.0000   0.0000   0.0000   0.8711
  -1.000   0.2424   0.03783   0.02933  -0.1241  0.8691  0.2753  -1.1945   0.0000   0.0000   0.0000   0.7647
  -0.750   0.2899   0.03701   0.02835  -0.1272  0.8576  0.2939  -1.1022   0.0000   0.0000   0.0000   0.6899
  -0.500   0.3328   0.03624   0.02764  -0.1291  0.8455  0.3096  -1.0108   0.0000   0.0000   0.0000   0.6382
  -0.250   0.3700   0.03563   0.02699  -0.1303  0.8311  0.3281  -0.9302   0.0000   0.0000   0.0000   0.6015
   0.000   0.4128   0.03484   0.02624  -0.1319  0.8185  0.3505  -0.8393   0.0000   0.0000   0.0000   0.5682
   0.250   0.4575   0.03389   0.02537  -0.1335  0.8066  0.3758  -0.8669   0.0000   0.0000   0.0000   0.5400
   0.500   0.5044   0.03275   0.02426  -0.1354  0.7951  0.4042  -0.9171   0.0000   0.0000   0.0000   0.5159
   0.750   0.5509   0.03150   0.02312  -0.1368  0.7839  0.4380  -0.9685   0.0000   0.0000   0.0000   0.4954
   1.000   0.5990   0.03014   0.02190  -0.1383  0.7729  0.4805  -1.0220   0.0000   0.0000   0.0000   0.4775
   1.250   0.6488   0.02869   0.02063  -0.1400  0.7615  0.5298  -1.0826   0.0000   0.0000   0.0000   0.4619
   1.500   0.7014   0.02714   0.01928  -0.1419  0.7498  0.5952  -1.1470   0.0000   0.0000   0.0000   0.4482
   1.750   0.7406   0.02610   0.01850  -0.1419  0.7341  0.6707  -1.2016   0.0000   0.0000   0.0000   0.4370
   2.000   0.7772   0.02473   0.01750  -0.1407  0.7196  0.7858  -1.2587   0.0000   0.0000   0.0000   0.4261
   2.250   0.8256   0.02348   0.01622  -0.1428  0.7015  1.0000  -1.3258   0.0000   0.0000   0.0000   0.4178
   2.500   0.8802   0.02308   0.01545  -0.1466  0.6813  1.0000  -1.4000   0.0000   0.0000   0.0000   0.4109
   2.750   0.9233   0.02300   0.01508  -0.1483  0.6598  1.0000  -1.4637   0.0000   0.0000   0.0000   0.4047
   3.000   0.9608   0.02311   0.01493  -0.1491  0.6380  1.0000  -1.5223   0.0000   0.0000   0.0000   0.3989
   3.250   0.9955   0.02335   0.01493  -0.1494  0.6164  1.0000  -1.5783   0.0000   0.0000   0.0000   0.3934
   3.500   1.0285   0.02367   0.01502  -0.1495  0.5954  1.0000  -1.6331   0.0000   0.0000   0.0000   0.3884
   3.750   1.0581   0.02411   0.01525  -0.1491  0.5749  1.0000  -1.6842   0.0000   0.0000   0.0000   0.3836
   4.000   1.0834   0.02466   0.01564  -0.1480  0.5550  1.0000  -1.7306   0.0000   0.0000   0.0000   0.3789
   4.250   1.1094   0.02524   0.01608  -0.1471  0.5362  1.0000  -1.7779   0.0000   0.0000   0.0000   0.3745
   4.500   1.1394   0.02579   0.01641  -0.1468  0.5187  1.0000  -1.8300   0.0000   0.0000   0.0000   0.3705
   4.750   1.1617   0.02648   0.01700  -0.1453  0.5012  1.0000  -1.8796   0.0000   0.0000   0.0000   0.3664
   5.000   1.1892   0.02714   0.01748  -0.1447  0.4853  1.0000  -1.9373   0.0000   0.0000   0.0000   0.3626
   5.250   1.2104   0.02788   0.01816  -0.1431  0.4692  1.0000  -1.9870   0.0000   0.0000   0.0000   0.3588
   5.500   1.2382   0.02852   0.01865  -0.1426  0.4543  1.0000  -2.0463   0.0000   0.0000   0.0000   0.3553
   5.750   1.2578   0.02933   0.01941  -0.1407  0.4398  1.0000  -2.0942   0.0000   0.0000   0.0000   0.3517
   6.000   1.2792   0.03012   0.02013  -0.1392  0.4259  1.0000  -2.1448   0.0000   0.0000   0.0000   0.3483
   6.250   1.3025   0.03093   0.02085  -0.1380  0.4131  1.0000  -2.1998   0.0000   0.0000   0.0000   0.3451
   6.500   1.3259   0.03179   0.02163  -0.1369  0.4011  1.0000  -2.2577   0.0000   0.0000   0.0000   0.3420
   6.750   1.3484   0.03271   0.02248  -0.1357  0.3898  1.0000  -2.3142   0.0000   0.0000   0.0000   0.3390
   7.000   1.3693   0.03369   0.02345  -0.1343  0.3791  1.0000  -2.3682   0.0000   0.0000   0.0000   0.3360
   7.250   1.3886   0.03477   0.02462  -0.1326  0.3690  1.0000  -2.4194   0.0000   0.0000   0.0000   0.3331
   7.500   1.4070   0.03594   0.02582  -0.1309  0.3597  1.0000  -2.4740   0.0000   0.0000   0.0000   0.3303
   7.750   1.4265   0.03713   0.02704  -0.1293  0.3509  1.0000  -2.5302   0.0000   0.0000   0.0000   0.3276
   8.000   1.4497   0.03828   0.02814  -0.1284  0.3426  1.0000  -2.5931   0.0000   0.0000   0.0000   0.3251
   8.250   1.4708   0.03943   0.02928  -0.1271  0.3342  1.0000  -2.6529   0.0000   0.0000   0.0000   0.3225
   8.500   1.4779   0.04097   0.03100  -0.1238  0.3264  1.0000  -2.6886   0.0000   0.0000   0.0000   0.3195
   8.750   1.4926   0.04233   0.03241  -0.1217  0.3188  1.0000  -2.7379   0.0000   0.0000   0.0000   0.3169
   9.000   1.5195   0.04335   0.03332  -0.1213  0.3110  1.0000  -2.8094   0.0000   0.0000   0.0000   0.3148
   9.250   1.5171   0.04522   0.03545  -0.1169  0.3044  1.0000  -2.8281   0.0000   0.0000   0.0000   0.3117
   9.500   1.5297   0.04675   0.03704  -0.1147  0.2980  1.0000  -2.8734   0.0000   0.0000   0.0000   0.3092
   9.750   1.5422   0.04827   0.03863  -0.1125  0.2917  1.0000  -2.9219   0.0000   0.0000   0.0000   0.3067
  10.000   1.5384   0.05046   0.04102  -0.1084  0.2869  1.0000  -2.9422   0.0000   0.0000   0.0000   0.3039
  10.250   1.5334   0.05265   0.04339  -0.1042  0.2822  1.0000  -2.9691   0.0000   0.0000   0.0000   0.3010
  10.500   1.5451   0.05448   0.04533  -0.1022  0.2774  1.0000  -3.0327   0.0000   0.0000   0.0000   0.2988
  10.750   1.5034   0.05828   0.04949  -0.0948  0.2746  1.0000  -2.9810   0.0000   0.0000   0.0000   0.2953
  11.000   1.5556   0.05844   0.04944  -0.0970  0.2678  1.0000  -3.1340   0.0000   0.0000   0.0000   0.2941
  11.250   1.4913   0.06373   0.05517  -0.0887  0.2665  1.0000  -3.0290   0.0000   0.0000   0.0000   0.2909
  11.500   1.3850   0.07412   0.06598  -0.0825  0.2664  1.0000  -2.8161   0.0000   0.0000   0.0000   0.2907
  11.750   0.9830   0.14253   0.13497  -0.1132  0.2779  1.0000  -1.6509   0.0000   0.0000   0.0000   0.3483
  12.000   0.9894   0.14737   0.13984  -0.1146  0.2789  1.0000  -1.6490   0.0000   0.0000   0.0000   0.3487
  12.500   0.9135   0.16997   0.16264  -0.1305  0.3362  1.0000  -1.3486   0.0000   0.0000   0.0000   0.3762
  12.750   0.9211   0.17334   0.16601  -0.1315  0.3311  1.0000  -1.3664   0.0000   0.0000   0.0000   0.3757
  13.000   0.9386   0.17634   0.16903  -0.1316  0.3234  1.0000  -1.4117   0.0000   0.0000   0.0000   0.3726
  13.250   0.9334   0.17923   0.17192  -0.1336  0.3173  1.0000  -1.3949   0.0000   0.0000   0.0000   0.3752
  13.500   0.9535   0.18269   0.17540  -0.1336  0.3125  1.0000  -1.4446   0.0000   0.0000   0.0000   0.3718
  13.750   0.9487   0.18556   0.17828  -0.1358  0.3074  1.0000  -1.4253   0.0000   0.0000   0.0000   0.3744
  14.000   0.9651   0.18881   0.18162  -0.1361  0.3021  1.0000  -1.4645   0.0000   0.0000   0.0000   0.3719
  14.250   0.9646   0.19173   0.18454  -0.1381  0.2967  1.0000  -1.4542   0.0000   0.0000   0.0000   0.3736
  14.500   0.9860   0.19518   0.18802  -0.1379  0.2905  1.0000  -1.5080   0.0000   0.0000   0.0000   0.3698
  14.750   0.9812   0.19746   0.19029  -0.1403  0.2835  1.0000  -1.4841   0.0000   0.0000   0.0000   0.3725
  15.000   1.0049   0.20155   0.19441  -0.1399  0.2793  1.0000  -1.5426   0.0000   0.0000   0.0000   0.3683
  15.500   1.0147   0.20714   0.20002  -0.1431  0.2691  1.0000  -1.5437   0.0000   0.0000   0.0000   0.3692
  16.500   0.8062   0.20767   0.20186  -0.1248  0.2362  1.0000  -1.0604   0.0000   0.0000   0.0000   0.3852
  17.000   0.8075   0.21272   0.20699  -0.1274  0.2268  1.0000  -1.0209   0.0000   0.0000   0.0000   0.3875
  17.500   0.8127   0.21832   0.21266  -0.1298  0.2176  1.0000  -0.9887   0.0000   0.0000   0.0000   0.3887
  18.000   0.8204   0.22400   0.21840  -0.1320  0.2079  1.0000  -0.9797   0.0000   0.0000   0.0000   0.3890
  18.500   0.8333   0.23048   0.22495  -0.1337  0.2019  1.0000  -1.0334   0.0000   0.0000   0.0000   0.3877
  19.000   0.8422   0.23613   0.23067  -0.1358  0.1936  1.0000  -1.0721   0.0000   0.0000   0.0000   0.3876
  19.500   0.8436   0.24208   0.23675  -0.1389  0.1878  1.0000  -1.0736   0.0000   0.0000   0.0000   0.3903
  20.000   0.8621   0.24909   0.24385  -0.1399  0.1820  1.0000  -1.1503   0.0000   0.0000   0.0000   0.3868


