xflr5 v6.61

 Calculated polar for: E63_13_00

 1 1 Reynolds number fixed          Mach number fixed         

 xtrf =   1.000 (top)        1.000 (bottom)
 Mach =   0.200     Re =     0.050 e 6     Ncrit =   9.000

  alpha     CL        CD       CDp       Cm    Top Xtr Bot Xtr   Cpmin    Chinge    XCp    
 ------- -------- --------- --------- -------- ------- ------- -------- --------- ---------
 -20.000  -0.3240   0.21630   0.20862  -0.0210  1.0000  0.0893  -0.8901   0.0000   0.0000   0.0000   0.1665
 -19.500  -0.3154   0.21257   0.20489  -0.0220  1.0000  0.0935  -0.8876   0.0000   0.0000   0.0000   0.1613
 -19.000  -0.3131   0.21137   0.20370  -0.0238  1.0000  0.0966  -0.9276   0.0000   0.0000   0.0000   0.1552
 -18.500  -0.3040   0.20647   0.19881  -0.0247  1.0000  0.0984  -0.9235   0.0000   0.0000   0.0000   0.1500
 -18.000  -0.2930   0.20172   0.19408  -0.0251  1.0000  0.1019  -0.9003   0.0000   0.0000   0.0000   0.1453
 -17.500  -0.2871   0.19882   0.19120  -0.0261  1.0000  0.1058  -0.9086   0.0000   0.0000   0.0000   0.1401
 -17.000  -0.2911   0.19963   0.19202  -0.0279  1.0000  0.1077  -0.9653   0.0000   0.0000   0.0000   0.1355
 -16.500  -0.2741   0.19178   0.18423  -0.0276  1.0000  0.1106  -0.9245   0.0000   0.0000   0.0000   0.1304
 -16.000  -0.2669   0.18842   0.18089  -0.0280  1.0000  0.1151  -0.9340   0.0000   0.0000   0.0000   0.1261
 -15.500  -0.2704   0.18840   0.18089  -0.0293  1.0000  0.1183  -0.9964   0.0000   0.0000   0.0000   0.1230
 -15.000  -0.2587   0.18259   0.17510  -0.0290  1.0000  0.1210  -0.9826   0.0000   0.0000   0.0000   0.1186
 -14.500  -0.2516   0.17890   0.17144  -0.0290  1.0000  0.1261  -0.9855   0.0000   0.0000   0.0000   0.1154
 -14.000  -0.2602   0.17861   0.17119  -0.0303  1.0000  0.1294  -1.0592   0.0000   0.0000   0.0000   0.1152
 -13.000  -0.3217   0.17170   0.16358  -0.0274  1.0000  0.1347  -1.2711   0.0000   0.0000   0.0000   0.1425
 -12.500  -0.3227   0.16876   0.16075  -0.0288  1.0000  0.1400  -1.3191   0.0000   0.0000   0.0000   0.1395
 -12.000  -0.3045   0.16112   0.15320  -0.0280  1.0000  0.1449  -1.2775   0.0000   0.0000   0.0000   0.1365
 -11.500  -0.3098   0.15843   0.15064  -0.0291  1.0000  0.1510  -1.3332   0.0000   0.0000   0.0000   0.1361
 -11.000  -0.2908   0.15067   0.14297  -0.0278  1.0000  0.1578  -1.2871   0.0000   0.0000   0.0000   0.1343
 -10.500  -0.2899   0.14587   0.13831  -0.0277  1.0000  0.1643  -1.3142   0.0000   0.0000   0.0000   0.1353
 -10.000  -0.2860   0.14081   0.13337  -0.0268  1.0000  0.1754  -1.3215   0.0000   0.0000   0.0000   0.1381
  -9.750  -0.2874   0.13907   0.13170  -0.0263  1.0000  0.1832  -1.3456   0.0000   0.0000   0.0000   0.1410
  -9.500  -0.2793   0.13548   0.12817  -0.0251  1.0000  0.1903  -1.3452   0.0000   0.0000   0.0000   0.1424
  -9.250  -0.2952   0.13550   0.12829  -0.0252  1.0000  0.1950  -1.4107   0.0000   0.0000   0.0000   0.1485
  -9.000  -0.2828   0.13134   0.12417  -0.0237  1.0000  0.2045  -1.3966   0.0000   0.0000   0.0000   0.1498
  -8.750  -0.2787   0.12848   0.12133  -0.0225  1.0000  0.2135  -1.4001   0.0000   0.0000   0.0000   0.1534
  -8.500  -0.2833   0.12653   0.11946  -0.0216  1.0000  0.2192  -1.4265   0.0000   0.0000   0.0000   0.1583
  -8.250  -0.2819   0.12420   0.11718  -0.0204  1.0000  0.2256  -1.4313   0.0000   0.0000   0.0000   0.1627
  -8.000  -0.2905   0.12263   0.11571  -0.0196  1.0000  0.2291  -1.4615   0.0000   0.0000   0.0000   0.1688
  -7.750  -0.2830   0.11959   0.11270  -0.0180  1.0000  0.2353  -1.4421   0.0000   0.0000   0.0000   0.1725
  -7.500  -0.3069   0.12001   0.11327  -0.0169  1.0000  0.2390  -1.5022   0.0000   0.0000   0.0000   0.1827
  -7.250  -0.2875   0.11544   0.10869  -0.0153  1.0000  0.2448  -1.4470   0.0000   0.0000   0.0000   0.1843
  -7.000  -0.3085   0.11541   0.10879  -0.0137  1.0000  0.2496  -1.4929   0.0000   0.0000   0.0000   0.1944
  -6.750  -0.2959   0.11169   0.10511  -0.0121  1.0000  0.2544  -1.4507   0.0000   0.0000   0.0000   0.1979
  -6.500  -0.3132   0.11121   0.10474  -0.0102  1.0000  0.2600  -1.4804   0.0000   0.0000   0.0000   0.2076
  -6.250  -0.3087   0.10834   0.10193  -0.0084  1.0000  0.2644  -1.4550   0.0000   0.0000   0.0000   0.2130
  -6.000  -0.3225   0.10748   0.10117  -0.0061  1.0000  0.2704  -1.4704   0.0000   0.0000   0.0000   0.2223
  -5.750  -0.3272   0.10542   0.09920  -0.0040  1.0000  0.2744  -1.4640   0.0000   0.0000   0.0000   0.2295
  -5.500  -0.3398   0.10441   0.09829  -0.0012  1.0000  0.2812  -1.4706   0.0000   0.0000   0.0000   0.2386
  -5.250  -0.3420   0.10229   0.09624   0.0010  1.0000  0.2871  -1.4530   0.0000   0.0000   0.0000   0.2458
  -5.000  -0.3675   0.10210   0.09618   0.0027  1.0000  0.2935  -1.4979   0.0000   0.0000   0.0000   0.2509
  -4.750  -0.3610   0.09946   0.09360   0.0052  1.0000  0.3023  -1.4534   0.0000   0.0000   0.0000   0.2583
  -4.500  -0.3643   0.09745   0.09167   0.0070  1.0000  0.3093  -1.4390   0.0000   0.0000   0.0000   0.2634
  -4.250  -0.3755   0.09596   0.09026   0.0076  1.0000  0.3172  -1.4508   0.0000   0.0000   0.0000   0.2648
  -4.000  -0.3843   0.09452   0.08891   0.0072  1.0000  0.3267  -1.4601   0.0000   0.0000   0.0000   0.2638
  -3.750  -0.3770   0.09188   0.08632   0.0105  1.0000  0.3333  -1.4086   0.0000   0.0000   0.0000   0.2730
  -3.500  -0.3793   0.08984   0.08434   0.0110  1.0000  0.3415  -1.3966   0.0000   0.0000   0.0000   0.2744
  -3.250  -0.3805   0.08781   0.08237   0.0110  1.0000  0.3512  -1.3831   0.0000   0.0000   0.0000   0.2747
  -3.000  -0.3794   0.08573   0.08034   0.0111  1.0000  0.3618  -1.3633   0.0000   0.0000   0.0000   0.2751
  -2.750  -0.3764   0.08363   0.07830   0.0113  1.0000  0.3729  -1.3376   0.0000   0.0000   0.0000   0.2760
  -2.250  -0.2291   0.05900   0.05246  -0.0516  1.0000  0.2147  -1.5255   0.0000   0.0000   0.0000   0.0182
  -2.000  -0.1748   0.05339   0.04633  -0.0645  1.0000  0.2165  -1.5339   0.0000   0.0000   0.0000  -0.1270
  -1.750  -0.1478   0.05143   0.04427  -0.0675  1.0000  0.2207  -1.5104   0.0000   0.0000   0.0000  -0.2158
  -1.500  -0.1012   0.04840   0.04077  -0.0756  0.9992  0.2293  -1.5028   0.0000   0.0000   0.0000  -0.5094
  -1.250  -0.0182   0.04708   0.03896  -0.0879  0.9821  0.2507  -1.4146   0.0000   0.0000   0.0000  -4.6365
  -1.000   0.0430   0.04645   0.03807  -0.0954  0.9662  0.2726  -1.3232   0.0000   0.0000   0.0000   2.4862
  -0.750   0.1029   0.04583   0.03720  -0.1021  0.9512  0.2922  -1.2485   0.0000   0.0000   0.0000   1.2487
  -0.500   0.1498   0.04544   0.03671  -0.1063  0.9343  0.3129  -1.1733   0.0000   0.0000   0.0000   0.9627
  -0.250   0.2016   0.04506   0.03617  -0.1111  0.9186  0.3357  -1.0913   0.0000   0.0000   0.0000   0.8024
   0.000   0.2496   0.04470   0.03569  -0.1151  0.9021  0.3590  -1.0103   0.0000   0.0000   0.0000   0.7113
   0.250   0.2940   0.04449   0.03549  -0.1180  0.8857  0.3847  -0.9262   0.0000   0.0000   0.0000   0.6509
   0.500   0.3414   0.04423   0.03523  -0.1213  0.8695  0.4166  -0.8381   0.0000   0.0000   0.0000   0.6038
   0.750   0.3836   0.04399   0.03500  -0.1236  0.8522  0.4486  -0.7643   0.0000   0.0000   0.0000   0.5703
   1.000   0.4328   0.04354   0.03458  -0.1264  0.8365  0.4916  -0.8125   0.0000   0.0000   0.0000   0.5395
   1.250   0.4687   0.04329   0.03446  -0.1271  0.8185  0.5366  -0.8504   0.0000   0.0000   0.0000   0.5182
   1.500   0.5169   0.04243   0.03380  -0.1288  0.8037  0.6023  -0.9010   0.0000   0.0000   0.0000   0.4958
   1.750   0.5452   0.04197   0.03365  -0.1277  0.7857  0.6735  -0.9380   0.0000   0.0000   0.0000   0.4805
   2.000   0.5719   0.04048   0.03273  -0.1247  0.7720  0.8095  -0.9767   0.0000   0.0000   0.0000   0.4639
   2.250   0.6213   0.03983   0.03176  -0.1286  0.7526  1.0000  -1.0311   0.0000   0.0000   0.0000   0.4526
   2.500   0.6829   0.03880   0.03036  -0.1322  0.7386  1.0000  -1.1089   0.0000   0.0000   0.0000   0.4388
   2.750   0.7191   0.03871   0.03007  -0.1325  0.7201  1.0000  -1.1610   0.0000   0.0000   0.0000   0.4291
   3.000   0.7796   0.03717   0.02835  -0.1349  0.7066  1.0000  -1.2420   0.0000   0.0000   0.0000   0.4176
   3.250   0.8198   0.03677   0.02782  -0.1353  0.6885  1.0000  -1.3006   0.0000   0.0000   0.0000   0.4093
   3.500   0.8904   0.03484   0.02572  -0.1390  0.6737  1.0000  -1.3953   0.0000   0.0000   0.0000   0.4000
   3.750   0.9350   0.03439   0.02517  -0.1400  0.6541  1.0000  -1.4601   0.0000   0.0000   0.0000   0.3933
   4.000   0.9827   0.03385   0.02450  -0.1413  0.6346  1.0000  -1.5293   0.0000   0.0000   0.0000   0.3870
   4.250   1.0302   0.03342   0.02392  -0.1427  0.6146  1.0000  -1.5988   0.0000   0.0000   0.0000   0.3814
   4.500   1.0746   0.03326   0.02362  -0.1438  0.5945  1.0000  -1.6715   0.0000   0.0000   0.0000   0.3764
   4.750   1.1146   0.03338   0.02357  -0.1445  0.5746  1.0000  -1.7422   0.0000   0.0000   0.0000   0.3718
   5.000   1.1369   0.03424   0.02437  -0.1429  0.5552  1.0000  -1.7897   0.0000   0.0000   0.0000   0.3676
   5.250   1.1633   0.03501   0.02505  -0.1420  0.5368  1.0000  -1.8426   0.0000   0.0000   0.0000   0.3635
   5.500   1.2008   0.03543   0.02530  -0.1424  0.5191  1.0000  -1.9109   0.0000   0.0000   0.0000   0.3598
   5.750   1.2153   0.03672   0.02665  -0.1400  0.5024  1.0000  -1.9495   0.0000   0.0000   0.0000   0.3560
   6.000   1.2497   0.03732   0.02708  -0.1401  0.4862  1.0000  -2.0197   0.0000   0.0000   0.0000   0.3526
   6.250   1.2613   0.03877   0.02858  -0.1373  0.4711  1.0000  -2.0561   0.0000   0.0000   0.0000   0.3490
   6.500   1.2862   0.03973   0.02947  -0.1363  0.4562  1.0000  -2.1127   0.0000   0.0000   0.0000   0.3457
   6.750   1.3134   0.04069   0.03032  -0.1355  0.4422  1.0000  -2.1759   0.0000   0.0000   0.0000   0.3426
   7.000   1.3241   0.04227   0.03197  -0.1328  0.4293  1.0000  -2.2153   0.0000   0.0000   0.0000   0.3394
   7.250   1.3375   0.04379   0.03354  -0.1304  0.4169  1.0000  -2.2589   0.0000   0.0000   0.0000   0.3363
   7.500   1.3513   0.04544   0.03523  -0.1283  0.4058  1.0000  -2.3022   0.0000   0.0000   0.0000   0.3333
   7.750   1.3651   0.04727   0.03722  -0.1262  0.3960  1.0000  -2.3441   0.0000   0.0000   0.0000   0.3305
   8.000   1.3824   0.04903   0.03900  -0.1247  0.3866  1.0000  -2.3912   0.0000   0.0000   0.0000   0.3278
   8.250   1.4008   0.05074   0.04074  -0.1232  0.3774  1.0000  -2.4404   0.0000   0.0000   0.0000   0.3253
   8.500   1.3639   0.05496   0.04531  -0.1162  0.3714  1.0000  -2.3947   0.0000   0.0000   0.0000   0.3222
   8.750   1.3669   0.05738   0.04781  -0.1133  0.3638  1.0000  -2.4170   0.0000   0.0000   0.0000   0.3196
   9.000   1.2845   0.06497   0.05573  -0.1046  0.3613  1.0000  -2.2881   0.0000   0.0000   0.0000   0.3179
   9.250   1.0096   0.10232   0.09335  -0.1109  0.3635  1.0000  -1.6988   0.0000   0.0000   0.0000   0.3468
   9.500   0.9774   0.11137   0.10245  -0.1138  0.3605  1.0000  -1.6135   0.0000   0.0000   0.0000   0.3533
   9.750   0.9920   0.11420   0.10530  -0.1134  0.3543  1.0000  -1.6401   0.0000   0.0000   0.0000   0.3510
  10.000   0.9577   0.12394   0.11510  -0.1175  0.3575  1.0000  -1.5380   0.0000   0.0000   0.0000   0.3593
  10.250   0.9641   0.12828   0.11946  -0.1183  0.3547  1.0000  -1.5405   0.0000   0.0000   0.0000   0.3590
  15.000   1.0077   0.20634   0.19813  -0.1502  0.3311  1.0000  -1.4520   0.0000   0.0000   0.0000   0.3790
  15.500   1.0224   0.21217   0.20401  -0.1529  0.3187  1.0000  -1.4575   0.0000   0.0000   0.0000   0.3787
  16.000   1.0407   0.21807   0.20996  -0.1553  0.3040  1.0000  -1.4700   0.0000   0.0000   0.0000   0.3774
  16.500   1.0626   0.22479   0.21674  -0.1574  0.2911  1.0000  -1.4876   0.0000   0.0000   0.0000   0.3754
  17.000   1.0776   0.23064   0.22263  -0.1606  0.2805  1.0000  -1.5083   0.0000   0.0000   0.0000   0.3752
  18.000   1.1124   0.24284   0.23494  -0.1664  0.2583  1.0000  -1.6372   0.0000   0.0000   0.0000   0.3738
  18.500   1.1258   0.24807   0.24029  -0.1700  0.2482  1.0000  -1.6818   0.0000   0.0000   0.0000   0.3742
  19.000   1.1381   0.25333   0.24560  -0.1741  0.2401  1.0000  -1.7161   0.0000   0.0000   0.0000   0.3750
  19.500   1.1558   0.25984   0.25219  -0.1774  0.2334  1.0000  -1.7696   0.0000   0.0000   0.0000   0.3745
  20.000   1.1791   0.26774   0.26020  -0.1797  0.2250  1.0000  -1.8471   0.0000   0.0000   0.0000   0.3722


