xflr5 v6.61

 Calculated polar for: E63_4_27

 1 1 Reynolds number fixed          Mach number fixed         

 xtrf =   1.000 (top)        1.000 (bottom)
 Mach =   0.200     Re =     0.050 e 6     Ncrit =   7.000

  alpha     CL        CD       CDp       Cm    Top Xtr Bot Xtr   Cpmin    Chinge    XCp    
 ------- -------- --------- --------- -------- ------- ------- -------- --------- ---------
 -24.000  -0.7585   0.29481   0.28669   0.0419  1.0000  0.0225  -1.5489   0.0000   0.0000   0.0000   0.2964
 -23.500  -0.7441   0.28786   0.27968   0.0388  1.0000  0.0233  -1.4855   0.0000   0.0000   0.0000   0.2937
 -23.000  -0.7294   0.28225   0.27406   0.0353  1.0000  0.0242  -1.4425   0.0000   0.0000   0.0000   0.2905
 -22.500  -0.7144   0.27685   0.26865   0.0319  1.0000  0.0252  -1.4050   0.0000   0.0000   0.0000   0.2871
 -22.000  -0.6993   0.27160   0.26340   0.0284  1.0000  0.0262  -1.3851   0.0000   0.0000   0.0000   0.2835
 -21.500  -0.6841   0.26672   0.25853   0.0248  1.0000  0.0272  -1.4020   0.0000   0.0000   0.0000   0.2796
 -21.000  -0.6693   0.26310   0.25492   0.0210  1.0000  0.0279  -1.4376   0.0000   0.0000   0.0000   0.2751
 -20.500  -0.6561   0.26147   0.25328   0.0169  1.0000  0.0282  -1.4902   0.0000   0.0000   0.0000   0.2699
 -20.000  -0.6397   0.25186   0.24370   0.0146  1.0000  0.0289  -1.4457   0.0000   0.0000   0.0000   0.2673
 -19.500  -0.6242   0.24416   0.23599   0.0125  1.0000  0.0303  -1.3843   0.0000   0.0000   0.0000   0.2647
 -19.000  -0.6091   0.23833   0.23017   0.0098  1.0000  0.0319  -1.3538   0.0000   0.0000   0.0000   0.2610
 -18.500  -0.5942   0.23276   0.22462   0.0070  1.0000  0.0335  -1.3317   0.0000   0.0000   0.0000   0.2571
 -18.000  -0.5794   0.22734   0.21921   0.0043  1.0000  0.0349  -1.3137   0.0000   0.0000   0.0000   0.2530
 -17.500  -0.5649   0.22233   0.21423   0.0015  1.0000  0.0362  -1.3031   0.0000   0.0000   0.0000   0.2484
 -17.000  -0.5515   0.21834   0.21023  -0.0016  1.0000  0.0370  -1.3065   0.0000   0.0000   0.0000   0.2432
 -16.500  -0.5403   0.21554   0.20748  -0.0047  1.0000  0.0373  -1.3284   0.0000   0.0000   0.0000   0.2376
 -16.000  -0.5228   0.20544   0.19741  -0.0057  1.0000  0.0386  -1.2699   0.0000   0.0000   0.0000   0.2355
 -15.500  -0.5085   0.19908   0.19108  -0.0073  1.0000  0.0406  -1.2504   0.0000   0.0000   0.0000   0.2321
 -15.000  -0.4950   0.19347   0.18550  -0.0093  1.0000  0.0427  -1.2540   0.0000   0.0000   0.0000   0.2279
 -14.500  -0.4825   0.18852   0.18060  -0.0115  1.0000  0.0447  -1.2777   0.0000   0.0000   0.0000   0.2231
 -14.000  -0.4730   0.18537   0.17751  -0.0141  1.0000  0.0458  -1.3339   0.0000   0.0000   0.0000   0.2172
 -13.500  -0.4606   0.17888   0.17104  -0.0156  1.0000  0.0466  -1.3377   0.0000   0.0000   0.0000   0.2133
 -13.000  -0.4455   0.17088   0.16307  -0.0160  1.0000  0.0493  -1.2771   0.0000   0.0000   0.0000   0.2113
 -12.500  -0.4340   0.16528   0.15752  -0.0172  1.0000  0.0523  -1.2661   0.0000   0.0000   0.0000   0.2075
 -12.000  -0.4253   0.16112   0.15343  -0.0191  1.0000  0.0550  -1.2909   0.0000   0.0000   0.0000   0.2025
 -11.500  -0.4227   0.15927   0.15169  -0.0215  1.0000  0.0558  -1.3561   0.0000   0.0000   0.0000   0.1969
 -11.000  -0.4032   0.14870   0.14116  -0.0205  1.0000  0.0596  -1.2386   0.0000   0.0000   0.0000   0.1968
 -10.500  -0.3943   0.14359   0.13613  -0.0213  1.0000  0.0634  -1.2235   0.0000   0.0000   0.0000   0.1936
 -10.000  -0.3914   0.14066   0.13333  -0.0229  1.0000  0.0655  -1.2604   0.0000   0.0000   0.0000   0.1892
  -9.500  -0.3792   0.13329   0.12604  -0.0226  1.0000  0.0677  -1.2022   0.0000   0.0000   0.0000   0.1883
  -9.000  -0.3704   0.12775   0.12053  -0.0224  1.0000  0.0720  -1.1660   0.0000   0.0000   0.0000   0.1874
  -8.500  -0.3709   0.12500   0.11793  -0.0231  1.0000  0.0752  -1.2247   0.0000   0.0000   0.0000   0.1857
  -8.000  -0.3624   0.11853   0.11159  -0.0222  1.0000  0.0779  -1.2154   0.0000   0.0000   0.0000   0.1869
  -7.500  -0.3579   0.11364   0.10682  -0.0209  1.0000  0.0831  -1.2132   0.0000   0.0000   0.0000   0.1897
  -7.000  -0.3700   0.11208   0.10548  -0.0197  1.0000  0.0860  -1.2843   0.0000   0.0000   0.0000   0.1953
  -6.500  -0.3623   0.10544   0.09897  -0.0173  1.0000  0.0900  -1.2577   0.0000   0.0000   0.0000   0.2006
  -6.000  -0.3610   0.10177   0.09547  -0.0183  1.0000  0.0961  -1.2957   0.0000   0.0000   0.0000   0.1980
  -5.500  -0.3524   0.09585   0.08970  -0.0177  1.0000  0.1010  -1.2885   0.0000   0.0000   0.0000   0.1985
  -4.500  -0.3130   0.08566   0.07973  -0.0296  1.0000  0.1189  -1.3529   0.0000   0.0000   0.0000   0.1537
  -4.000  -0.2903   0.07891   0.07298  -0.0311  1.0000  0.1307  -1.3225   0.0000   0.0000   0.0000   0.1410
  -3.000  -0.2131   0.06581   0.05993  -0.0425  1.0000  0.1768  -1.2436   0.0000   0.0000   0.0000   0.0480
  -1.500   0.1620   0.03732   0.02930  -0.1117  1.0000  0.0831  -1.2917   0.0000   0.0000   0.0000   0.9420
  -1.000   0.2815   0.03121   0.02175  -0.1258  1.0000  0.0739  -1.3925   0.0000   0.0000   0.0000   0.6977
  -0.500   0.3688   0.02782   0.01737  -0.1318  1.0000  0.0799  -1.4063   0.0000   0.0000   0.0000   0.6076
   0.000   0.4386   0.02594   0.01479  -0.1336  1.0000  0.1064  -1.3708   0.0000   0.0000   0.0000   0.5543
   0.500   0.5047   0.02314   0.01373  -0.1353  1.0000  1.0000  -1.2377   0.0000   0.0000   0.0000   0.5174
   1.000   0.5524   0.02434   0.01424  -0.1348  1.0000  1.0000  -0.7871   0.0000   0.0000   0.0000   0.4929
   1.500   0.5971   0.02576   0.01527  -0.1343  1.0000  1.0000  -0.5723   0.0000   0.0000   0.0000   0.4733
   2.000   0.6389   0.02746   0.01679  -0.1338  1.0000  1.0000  -0.6229   0.0000   0.0000   0.0000   0.4573
   2.500   0.6859   0.02955   0.01885  -0.1348  0.9953  1.0000  -0.6912   0.0000   0.0000   0.0000   0.4440
   3.000   0.7817   0.03120   0.02063  -0.1442  0.9613  1.0000  -0.8199   0.0000   0.0000   0.0000   0.4315
   3.500   0.8733   0.03176   0.02155  -0.1514  0.9227  1.0000  -0.9880   0.0000   0.0000   0.0000   0.4199
   4.000   0.9673   0.03124   0.02166  -0.1571  0.8797  1.0000  -1.3240   0.0000   0.0000   0.0000   0.4084
   4.500   1.0613   0.02935   0.02055  -0.1601  0.8275  1.0000  -1.9153   0.0000   0.0000   0.0000   0.3963
   5.000   1.1632   0.02578   0.01809  -0.1608  0.7500  1.0000  -2.6184   0.0000   0.0000   0.0000   0.3831
   5.500   1.2455   0.02433   0.01676  -0.1571  0.5469  1.0000  -3.2465   0.0000   0.0000   0.0000   0.3704
   6.000   1.2516   0.02873   0.01910  -0.1466  0.2503  1.0000  -3.5561   0.0000   0.0000   0.0000   0.3607
   6.500   1.2772   0.03575   0.02477  -0.1414  0.0946  1.0000  -3.7172   0.0000   0.0000   0.0000   0.3537
   7.000   1.3423   0.04228   0.03159  -0.1404  0.0703  1.0000  -4.2426   0.0000   0.0000   0.0000   0.3469
   7.500   1.3955   0.04939   0.03925  -0.1388  0.0575  1.0000  -4.8660   0.0000   0.0000   0.0000   0.3412
   8.000   1.4298   0.05870   0.04999  -0.1344  0.0555  1.0000  -5.1391   0.0000   0.0000   0.0000   0.3352
   8.500   1.4372   0.06846   0.06096  -0.1279  0.0553  1.0000  -5.2215   0.0000   0.0000   0.0000   0.3297
   9.000   1.4251   0.07834   0.07175  -0.1212  0.0558  1.0000  -5.2069   0.0000   0.0000   0.0000   0.3252
   9.500   1.4002   0.08788   0.08191  -0.1150  0.0564  1.0000  -5.1551   0.0000   0.0000   0.0000   0.3218
  10.000   1.3581   0.09692   0.09150  -0.1100  0.0572  1.0000  -4.9986   0.0000   0.0000   0.0000   0.3201
  10.500   1.2947   0.10963   0.10470  -0.1131  0.0589  1.0000  -4.5776   0.0000   0.0000   0.0000   0.3259
  11.000   1.2478   0.12771   0.12293  -0.1259  0.0614  1.0000  -4.1009   0.0000   0.0000   0.0000   0.3390
  11.500   1.2301   0.14560   0.14064  -0.1378  0.0642  1.0000  -3.7575   0.0000   0.0000   0.0000   0.3498


