xflr5 v6.61

 Calculated polar for: E63_8_00

 1 1 Reynolds number fixed          Mach number fixed         

 xtrf =   1.000 (top)        1.000 (bottom)
 Mach =   0.200     Re =     0.025 e 6     Ncrit =   9.000

  alpha     CL        CD       CDp       Cm    Top Xtr Bot Xtr   Cpmin    Chinge    XCp    
 ------- -------- --------- --------- -------- ------- ------- -------- --------- ---------
 -20.000  -0.5960   0.25815   0.24618   0.0050  1.0000  0.1185  -1.2966   0.0000   0.0000   0.0000   0.2453
 -19.500  -0.5766   0.24856   0.23662   0.0032  1.0000  0.1232  -1.2638   0.0000   0.0000   0.0000   0.2426
 -19.000  -0.5635   0.24494   0.23304   0.0003  1.0000  0.1283  -1.2728   0.0000   0.0000   0.0000   0.2381
 -18.500  -0.5483   0.23886   0.22702  -0.0021  1.0000  0.1316  -1.2685   0.0000   0.0000   0.0000   0.2341
 -18.000  -0.5328   0.23317   0.22136  -0.0043  1.0000  0.1377  -1.2573   0.0000   0.0000   0.0000   0.2302
 -17.500  -0.5218   0.22993   0.21816  -0.0070  1.0000  0.1410  -1.2720   0.0000   0.0000   0.0000   0.2253
 -17.000  -0.5037   0.22222   0.21048  -0.0085  1.0000  0.1477  -1.2428   0.0000   0.0000   0.0000   0.2220
 -16.500  -0.4944   0.21941   0.20778  -0.0110  1.0000  0.1518  -1.2578   0.0000   0.0000   0.0000   0.2171
 -16.000  -0.4762   0.21164   0.20003  -0.0123  1.0000  0.1592  -1.2251   0.0000   0.0000   0.0000   0.2137
 -15.500  -0.4643   0.20676   0.19525  -0.0141  1.0000  0.1642  -1.2212   0.0000   0.0000   0.0000   0.2094
 -15.000  -0.4521   0.20192   0.19048  -0.0156  1.0000  0.1721  -1.2096   0.0000   0.0000   0.0000   0.2055
 -14.500  -0.4364   0.19506   0.18370  -0.0167  1.0000  0.1791  -1.1823   0.0000   0.0000   0.0000   0.2020
 -14.000  -0.4259   0.19021   0.17897  -0.0180  1.0000  0.1866  -1.1726   0.0000   0.0000   0.0000   0.1982
 -13.500  -0.4187   0.18659   0.17540  -0.0192  1.0000  0.1956  -1.1695   0.0000   0.0000   0.0000   0.1950
 -13.000  -0.4090   0.18169   0.17059  -0.0200  1.0000  0.2061  -1.1780   0.0000   0.0000   0.0000   0.1923
 -12.500  -0.3984   0.17615   0.16516  -0.0205  1.0000  0.2170  -1.1837   0.0000   0.0000   0.0000   0.1899
 -12.000  -0.3870   0.17012   0.15927  -0.0208  1.0000  0.2283  -1.1868   0.0000   0.0000   0.0000   0.1879
 -11.500  -0.3739   0.16348   0.15273  -0.0208  1.0000  0.2403  -1.1845   0.0000   0.0000   0.0000   0.1860
 -11.000  -0.3616   0.15716   0.14652  -0.0206  1.0000  0.2533  -1.1826   0.0000   0.0000   0.0000   0.1847
 -10.500  -0.3520   0.15158   0.14108  -0.0202  1.0000  0.2677  -1.1854   0.0000   0.0000   0.0000   0.1844
 -10.000  -0.3492   0.14752   0.13718  -0.0197  1.0000  0.2821  -1.2016   0.0000   0.0000   0.0000   0.1857
  -9.500  -0.3360   0.14073   0.13044  -0.0188  1.0000  0.2988  -1.1923   0.0000   0.0000   0.0000   0.1863
  -9.000  -0.3371   0.13715   0.12707  -0.0176  1.0000  0.3159  -1.2098   0.0000   0.0000   0.0000   0.1907
  -8.500  -0.3292   0.13149   0.12156  -0.0159  1.0000  0.3372  -1.2051   0.0000   0.0000   0.0000   0.1947
  -7.500  -0.3108   0.11959   0.11001  -0.0115  1.0000  0.3883  -1.1830   0.0000   0.0000   0.0000   0.2065
  -7.000  -0.3053   0.11426   0.10488  -0.0085  1.0000  0.4193  -1.1732   0.0000   0.0000   0.0000   0.2160
  -6.500  -0.3032   0.10949   0.10032  -0.0045  1.0000  0.4569  -1.1641   0.0000   0.0000   0.0000   0.2291
  -6.000  -0.3011   0.10458   0.09563   0.0002  1.0000  0.5022  -1.1502   0.0000   0.0000   0.0000   0.2451
  -5.500  -0.2735   0.09627   0.08744   0.0044  1.0000  0.5845  -1.0931   0.0000   0.0000   0.0000   0.2604
  -5.000  -0.0114   0.06555   0.05568  -0.0320  1.0000  1.0000  -0.9158   0.0000   0.0000   0.0000  -2.7159
  -4.500  -0.0001   0.06171   0.05202  -0.0314  1.0000  1.0000  -0.9351   0.0000   0.0000   0.0000  -446.5996
  -4.000   0.0097   0.05808   0.04858  -0.0304  1.0000  1.0000  -0.9580   0.0000   0.0000   0.0000   3.5092
  -3.500  -0.0260   0.05752   0.04842  -0.0182  1.0000  0.9780  -0.9949   0.0000   0.0000   0.0000  -0.4916
  -3.000  -0.1119   0.06015   0.05166   0.0038  1.0000  0.9167  -1.0486   0.0000   0.0000   0.0000   0.2765
  -2.500  -0.1988   0.06254   0.05463   0.0217  1.0000  0.8379  -1.1104   0.0000   0.0000   0.0000   0.3557
  -1.750  -0.1407   0.05854   0.05021  -0.0438  1.0000  0.3605  -1.3876   0.0000   0.0000   0.0000  -0.0658
  -1.500  -0.0295   0.05094   0.04177  -0.0706  1.0000  0.3166  -1.4517   0.0000   0.0000   0.0000  -2.1611
  -1.250   0.0403   0.04665   0.03688  -0.0830  1.0000  0.3267  -1.4327   0.0000   0.0000   0.0000   2.3199
  -1.000   0.0953   0.04374   0.03347  -0.0904  1.0000  0.3477  -1.3653   0.0000   0.0000   0.0000   1.2035
  -0.750   0.1452   0.04153   0.03081  -0.0961  1.0000  0.3737  -1.2805   0.0000   0.0000   0.0000   0.9143
  -0.500   0.1889   0.03996   0.02886  -0.1000  1.0000  0.4151  -1.2065   0.0000   0.0000   0.0000   0.7807
  -0.250   0.2233   0.03877   0.02751  -0.1015  1.0000  0.4646  -1.1262   0.0000   0.0000   0.0000   0.7050
   0.000   0.2549   0.03772   0.02643  -0.1021  1.0000  0.5320  -1.0420   0.0000   0.0000   0.0000   0.6505
   0.250   0.2806   0.03669   0.02555  -0.1011  1.0000  0.6208  -0.9615   0.0000   0.0000   0.0000   0.6099
   0.500   0.2951   0.03536   0.02467  -0.0976  1.0000  0.7416  -0.9006   0.0000   0.0000   0.0000   0.5797
   1.000   0.3736   0.03535   0.02321  -0.1078  1.0000  1.0000  -0.6923   0.0000   0.0000   0.0000   0.5369
   1.250   0.3971   0.03642   0.02383  -0.1086  1.0000  1.0000  -0.5868   0.0000   0.0000   0.0000   0.5214
   1.500   0.4184   0.03755   0.02465  -0.1091  1.0000  1.0000  -0.6082   0.0000   0.0000   0.0000   0.5083
   1.750   0.4384   0.03878   0.02564  -0.1094  1.0000  1.0000  -0.6291   0.0000   0.0000   0.0000   0.4970
   2.000   0.4572   0.04011   0.02677  -0.1098  1.0000  1.0000  -0.6498   0.0000   0.0000   0.0000   0.4873
   2.250   0.4751   0.04154   0.02805  -0.1101  1.0000  1.0000  -0.6695   0.0000   0.0000   0.0000   0.4787
   2.500   0.4919   0.04309   0.02949  -0.1105  1.0000  1.0000  -0.6893   0.0000   0.0000   0.0000   0.4713
   2.750   0.5079   0.04476   0.03108  -0.1110  1.0000  1.0000  -0.7080   0.0000   0.0000   0.0000   0.4648
   3.000   0.5230   0.04655   0.03282  -0.1115  1.0000  1.0000  -0.7282   0.0000   0.0000   0.0000   0.4593
   3.250   0.5372   0.04848   0.03472  -0.1120  1.0000  1.0000  -0.7471   0.0000   0.0000   0.0000   0.4544
   3.500   0.5507   0.05054   0.03676  -0.1127  1.0000  1.0000  -0.7656   0.0000   0.0000   0.0000   0.4503
   3.750   0.5634   0.05273   0.03896  -0.1135  1.0000  1.0000  -0.7832   0.0000   0.0000   0.0000   0.4467
   4.000   0.5755   0.05506   0.04132  -0.1143  1.0000  1.0000  -0.8005   0.0000   0.0000   0.0000   0.4437
   4.250   0.5869   0.05753   0.04381  -0.1152  1.0000  1.0000  -0.8169   0.0000   0.0000   0.0000   0.4412
   4.500   0.6195   0.06104   0.04740  -0.1204  0.9834  1.0000  -0.8512   0.0000   0.0000   0.0000   0.4391
   4.750   0.6800   0.06477   0.05125  -0.1297  0.9398  1.0000  -0.9158   0.0000   0.0000   0.0000   0.4352
   5.000   0.7244   0.06756   0.05415  -0.1352  0.9025  1.0000  -0.9683   0.0000   0.0000   0.0000   0.4309
   5.250   0.7696   0.07015   0.05686  -0.1400  0.8666  1.0000  -1.0277   0.0000   0.0000   0.0000   0.4260
   5.500   0.8058   0.07255   0.05939  -0.1431  0.8333  1.0000  -1.0770   0.0000   0.0000   0.0000   0.4214
   5.750   0.8416   0.07490   0.06191  -0.1456  0.8009  1.0000  -1.1306   0.0000   0.0000   0.0000   0.4167
   6.000   0.8766   0.07715   0.06431  -0.1477  0.7695  1.0000  -1.1852   0.0000   0.0000   0.0000   0.4119
   6.250   0.9004   0.07961   0.06692  -0.1484  0.7412  1.0000  -1.2236   0.0000   0.0000   0.0000   0.4080
   6.500   0.9265   0.08208   0.06954  -0.1491  0.7136  1.0000  -1.2651   0.0000   0.0000   0.0000   0.4039
   6.750   0.9456   0.08484   0.07250  -0.1492  0.6885  1.0000  -1.3148   0.0000   0.0000   0.0000   0.4005
   7.000   0.9776   0.08715   0.07499  -0.1498  0.6615  1.0000  -1.3910   0.0000   0.0000   0.0000   0.3957
   7.250   0.9923   0.09023   0.07821  -0.1495  0.6393  1.0000  -1.4324   0.0000   0.0000   0.0000   0.3929
   7.500   1.0081   0.09337   0.08149  -0.1492  0.6178  1.0000  -1.4755   0.0000   0.0000   0.0000   0.3900
   7.750   1.0049   0.09770   0.08590  -0.1487  0.6034  1.0000  -1.4766   0.0000   0.0000   0.0000   0.3897
   8.000   1.0213   0.10110   0.08945  -0.1486  0.5841  1.0000  -1.5181   0.0000   0.0000   0.0000   0.3870
   8.250   1.0213   0.10561   0.09405  -0.1487  0.5722  1.0000  -1.5216   0.0000   0.0000   0.0000   0.3868
   8.500   1.0225   0.11010   0.09863  -0.1488  0.5606  1.0000  -1.5264   0.0000   0.0000   0.0000   0.3865
   8.750   1.0266   0.11469   0.10344  -0.1493  0.5508  1.0000  -1.5345   0.0000   0.0000   0.0000   0.3862
   9.000   1.0327   0.11928   0.10813  -0.1499  0.5411  1.0000  -1.5453   0.0000   0.0000   0.0000   0.3856
   9.250   1.0268   0.12475   0.11367  -0.1512  0.5409  1.0000  -1.5253   0.0000   0.0000   0.0000   0.3875
  10.250   0.9172   0.14913   0.13801  -0.1645  0.7538  1.0000  -1.2392   0.0000   0.0000   0.0000   0.4182
  10.500   0.9304   0.15348   0.14248  -0.1661  0.7404  1.0000  -1.2534   0.0000   0.0000   0.0000   0.4171
  10.750   0.9419   0.15752   0.14661  -0.1673  0.7249  1.0000  -1.2642   0.0000   0.0000   0.0000   0.4159
  11.000   0.9567   0.16187   0.15118  -0.1687  0.7067  1.0000  -1.3029   0.0000   0.0000   0.0000   0.4143
  11.250   0.9685   0.16618   0.15558  -0.1700  0.6939  1.0000  -1.3455   0.0000   0.0000   0.0000   0.4133
  11.500   0.9757   0.16918   0.15867  -0.1706  0.6764  1.0000  -1.3784   0.0000   0.0000   0.0000   0.4122
  11.750   0.9883   0.17332   0.16290  -0.1717  0.6591  1.0000  -1.4219   0.0000   0.0000   0.0000   0.4108
  12.000   0.9974   0.17691   0.16659  -0.1727  0.6453  1.0000  -1.4550   0.0000   0.0000   0.0000   0.4099
  12.250   1.0163   0.18256   0.17235  -0.1744  0.6290  1.0000  -1.5100   0.0000   0.0000   0.0000   0.4081
  12.500   1.0206   0.18475   0.17460  -0.1747  0.6112  1.0000  -1.5309   0.0000   0.0000   0.0000   0.4073
  12.750   1.0368   0.18995   0.17991  -0.1762  0.5956  1.0000  -1.5763   0.0000   0.0000   0.0000   0.4057
  13.000   1.0426   0.19282   0.18285  -0.1770  0.5827  1.0000  -1.5956   0.0000   0.0000   0.0000   0.4052
  13.250   1.0563   0.19716   0.18729  -0.1781  0.5647  1.0000  -1.6326   0.0000   0.0000   0.0000   0.4037
  13.500   1.0633   0.20005   0.19023  -0.1788  0.5481  1.0000  -1.6523   0.0000   0.0000   0.0000   0.4029
  13.750   1.0747   0.20410   0.19437  -0.1800  0.5335  1.0000  -1.6788   0.0000   0.0000   0.0000   0.4018
  14.000   1.0860   0.20839   0.19875  -0.1813  0.5213  1.0000  -1.7015   0.0000   0.0000   0.0000   0.4009
  14.250   1.0980   0.21292   0.20352  -0.1825  0.5078  1.0000  -1.7331   0.0000   0.0000   0.0000   0.3998
  14.500   1.1032   0.21509   0.20575  -0.1833  0.4919  1.0000  -1.7507   0.0000   0.0000   0.0000   0.3995
  14.750   1.1207   0.22116   0.21192  -0.1844  0.4755  1.0000  -1.7974   0.0000   0.0000   0.0000   0.3975
  15.000   1.1292   0.22480   0.21563  -0.1857  0.4644  1.0000  -1.8143   0.0000   0.0000   0.0000   0.3970
  15.250   1.1381   0.22856   0.21946  -0.1871  0.4534  1.0000  -1.8285   0.0000   0.0000   0.0000   0.3965
  15.500   1.1464   0.23212   0.22308  -0.1885  0.4423  1.0000  -1.8379   0.0000   0.0000   0.0000   0.3962
  15.750   1.1516   0.23436   0.22536  -0.1898  0.4292  1.0000  -1.8373   0.0000   0.0000   0.0000   0.3962
  16.000   1.1626   0.23829   0.22936  -0.1908  0.4121  1.0000  -1.8485   0.0000   0.0000   0.0000   0.3951
  16.250   1.1745   0.24317   0.23431  -0.1921  0.3998  1.0000  -1.8545   0.0000   0.0000   0.0000   0.3941
  16.500   1.1816   0.24625   0.23743  -0.1937  0.3896  1.0000  -1.8456   0.0000   0.0000   0.0000   0.3941
  16.750   1.1885   0.24927   0.24048  -0.1955  0.3799  1.0000  -1.8337   0.0000   0.0000   0.0000   0.3941
  17.000   1.1986   0.25340   0.24465  -0.1969  0.3681  1.0000  -1.8282   0.0000   0.0000   0.0000   0.3935
  17.250   1.2104   0.25834   0.24963  -0.1980  0.3547  1.0000  -1.8270   0.0000   0.0000   0.0000   0.3924
  17.500   1.2175   0.26113   0.25244  -0.1997  0.3431  1.0000  -1.8149   0.0000   0.0000   0.0000   0.3924
  17.750   1.2288   0.26594   0.25728  -0.2011  0.3331  1.0000  -1.8116   0.0000   0.0000   0.0000   0.3916
  18.000   1.2376   0.26946   0.26085  -0.2027  0.3229  1.0000  -1.8068   0.0000   0.0000   0.0000   0.3912
  18.250   1.2427   0.27107   0.26247  -0.2047  0.3135  1.0000  -1.8052   0.0000   0.0000   0.0000   0.3917
  18.500   1.2494   0.27361   0.26501  -0.2067  0.3043  1.0000  -1.8084   0.0000   0.0000   0.0000   0.3919
  18.750   1.2574   0.27682   0.26825  -0.2085  0.2960  1.0000  -1.8149   0.0000   0.0000   0.0000   0.3918
  19.000   1.2688   0.28186   0.27343  -0.2100  0.2885  1.0000  -1.8325   0.0000   0.0000   0.0000   0.3910
  19.250   1.2761   0.28446   0.27607  -0.2121  0.2812  1.0000  -1.8357   0.0000   0.0000   0.0000   0.3912
  19.500   1.2835   0.28764   0.27927  -0.2143  0.2764  1.0000  -1.8367   0.0000   0.0000   0.0000   0.3914
  19.750   1.2943   0.29224   0.28393  -0.2158  0.2692  1.0000  -1.8515   0.0000   0.0000   0.0000   0.3907
  20.000   1.2995   0.29403   0.28572  -0.2185  0.2649  1.0000  -1.8428   0.0000   0.0000   0.0000   0.3915


