xflr5 v6.61

 Calculated polar for: E63_8_00

 1 1 Reynolds number fixed          Mach number fixed         

 xtrf =   1.000 (top)        1.000 (bottom)
 Mach =   0.200     Re =     0.080 e 6     Ncrit =   7.000

  alpha     CL        CD       CDp       Cm    Top Xtr Bot Xtr   Cpmin    Chinge    XCp    
 ------- -------- --------- --------- -------- ------- ------- -------- --------- ---------
 -16.500  -0.4819   0.20805   0.20141  -0.0111  1.0000  0.0385  -1.3768   0.0000   0.0000   0.0000   0.2159
 -16.000  -0.4671   0.20200   0.19539  -0.0125  1.0000  0.0399  -1.3396   0.0000   0.0000   0.0000   0.2124
 -15.500  -0.4532   0.19638   0.18981  -0.0142  1.0000  0.0414  -1.3223   0.0000   0.0000   0.0000   0.2081
 -15.000  -0.4400   0.19089   0.18435  -0.0159  1.0000  0.0432  -1.3165   0.0000   0.0000   0.0000   0.2034
 -14.500  -0.4283   0.18591   0.17942  -0.0180  1.0000  0.0450  -1.3336   0.0000   0.0000   0.0000   0.1979
 -14.000  -0.4212   0.18257   0.17615  -0.0208  1.0000  0.0458  -1.3927   0.0000   0.0000   0.0000   0.1911
 -13.500  -0.4190   0.18026   0.17392  -0.0235  1.0000  0.0461  -1.4657   0.0000   0.0000   0.0000   0.1848
 -13.000  -0.3939   0.16858   0.16223  -0.0220  1.0000  0.0477  -1.3080   0.0000   0.0000   0.0000   0.1849
 -12.500  -0.3815   0.16270   0.15640  -0.0225  1.0000  0.0497  -1.2588   0.0000   0.0000   0.0000   0.1820
 -12.000  -0.3713   0.15730   0.15106  -0.0233  1.0000  0.0526  -1.2409   0.0000   0.0000   0.0000   0.1783
 -11.500  -0.3672   0.15348   0.14733  -0.0253  1.0000  0.0553  -1.3212   0.0000   0.0000   0.0000   0.1727
 -11.000  -0.3740   0.15192   0.14588  -0.0280  1.0000  0.0559  -1.4572   0.0000   0.0000   0.0000   0.1676
 -10.500  -0.3460   0.14087   0.13487  -0.0251  1.0000  0.0592  -1.3035   0.0000   0.0000   0.0000   0.1696
 -10.000  -0.3386   0.13568   0.12976  -0.0252  1.0000  0.0624  -1.3169   0.0000   0.0000   0.0000   0.1680
  -9.500  -0.3394   0.13198   0.12617  -0.0264  1.0000  0.0652  -1.4014   0.0000   0.0000   0.0000   0.1653
  -9.000  -0.3521   0.13009   0.12445  -0.0280  1.0000  0.0658  -1.5401   0.0000   0.0000   0.0000   0.1644
  -8.500  -0.3258   0.12041   0.11476  -0.0245  1.0000  0.0690  -1.4025   0.0000   0.0000   0.0000   0.1683
  -6.500  -0.3379   0.10321   0.09810  -0.0176  1.0000  0.0798  -1.5032   0.0000   0.0000   0.0000   0.1937
  -6.000  -0.3513   0.09995   0.09501  -0.0142  1.0000  0.0832  -1.5334   0.0000   0.0000   0.0000   0.2059
  -5.500  -0.3622   0.09658   0.09181  -0.0211  1.0000  0.0863  -1.6994   0.0000   0.0000   0.0000   0.1884
  -5.000  -0.3549   0.09030   0.08564  -0.0157  1.0000  0.0887  -1.6091   0.0000   0.0000   0.0000   0.2027
  -4.500  -0.3438   0.08494   0.08037  -0.0178  1.0000  0.0941  -1.5984   0.0000   0.0000   0.0000   0.1954
  -4.000  -0.3220   0.07840   0.07389  -0.0241  1.0000  0.0999  -1.6093   0.0000   0.0000   0.0000   0.1723
  -3.500  -0.2262   0.06431   0.06002  -0.0382  0.9806  0.1216  -1.3857   0.0000   0.0000   0.0000   0.0784
  -2.500   0.0336   0.03326   0.02599  -0.1075  0.9973  0.0545  -2.2644   0.0000   0.0000   0.0000   3.4828
  -2.000   0.1428   0.02810   0.01957  -0.1193  0.9925  0.0623  -2.1272   0.0000   0.0000   0.0000   1.0911
  -1.500   0.2355   0.02614   0.01710  -0.1265  0.9838  0.0918  -1.8406   0.0000   0.0000   0.0000   0.7897
  -1.000   0.3233   0.02586   0.01683  -0.1332  0.9708  0.1603  -1.4055   0.0000   0.0000   0.0000   0.6631
  -0.500   0.4075   0.02530   0.01655  -0.1390  0.9547  0.2681  -1.0566   0.0000   0.0000   0.0000   0.5911
   0.000   0.4919   0.02464   0.01635  -0.1443  0.9383  0.4328  -0.7041   0.0000   0.0000   0.0000   0.5428
   0.500   0.5531   0.02295   0.01586  -0.1436  0.9173  1.0000  -0.6742   0.0000   0.0000   0.0000   0.5083
   1.000   0.6344   0.02278   0.01522  -0.1476  0.8949  1.0000  -0.7575   0.0000   0.0000   0.0000   0.4809
   1.500   0.7144   0.02231   0.01451  -0.1509  0.8716  1.0000  -0.8481   0.0000   0.0000   0.0000   0.4588
   2.000   0.7964   0.02137   0.01344  -0.1538  0.8480  1.0000  -0.9575   0.0000   0.0000   0.0000   0.4402
   2.500   0.8739   0.02034   0.01239  -0.1555  0.8197  1.0000  -1.0765   0.0000   0.0000   0.0000   0.4245
   3.000   0.9558   0.01923   0.01128  -0.1578  0.7854  1.0000  -1.2102   0.0000   0.0000   0.0000   0.4111
   3.500   1.0417   0.01838   0.01039  -0.1609  0.7368  1.0000  -1.3665   0.0000   0.0000   0.0000   0.3999
   4.000   1.1172   0.01825   0.01011  -0.1624  0.6697  1.0000  -1.5247   0.0000   0.0000   0.0000   0.3902
   4.500   1.1779   0.01885   0.01038  -0.1615  0.5929  1.0000  -1.7016   0.0000   0.0000   0.0000   0.3813
   5.000   1.2274   0.01995   0.01112  -0.1589  0.5185  1.0000  -1.8835   0.0000   0.0000   0.0000   0.3730
   5.500   1.2711   0.02133   0.01225  -0.1557  0.4518  1.0000  -2.0587   0.0000   0.0000   0.0000   0.3654
   6.000   1.3127   0.02288   0.01356  -0.1523  0.3940  1.0000  -2.2330   0.0000   0.0000   0.0000   0.3582
   6.500   1.3529   0.02460   0.01506  -0.1488  0.3445  1.0000  -2.5176   0.0000   0.0000   0.0000   0.3516
   7.000   1.3921   0.02644   0.01692  -0.1453  0.3013  1.0000  -2.8073   0.0000   0.0000   0.0000   0.3453
   7.500   1.4291   0.02840   0.01887  -0.1416  0.2630  1.0000  -3.1006   0.0000   0.0000   0.0000   0.3392
   8.000   1.4596   0.03036   0.02083  -0.1369  0.2273  1.0000  -3.4264   0.0000   0.0000   0.0000   0.3332
   8.500   1.4810   0.03228   0.02279  -0.1311  0.1941  1.0000  -3.7308   0.0000   0.0000   0.0000   0.3272
   9.000   1.5028   0.03448   0.02515  -0.1255  0.1671  1.0000  -4.0372   0.0000   0.0000   0.0000   0.3214
   9.500   1.5251   0.03711   0.02800  -0.1203  0.1461  1.0000  -4.3426   0.0000   0.0000   0.0000   0.3160
  10.000   1.5425   0.04016   0.03133  -0.1148  0.1275  1.0000  -4.6252   0.0000   0.0000   0.0000   0.3107
  10.500   1.5509   0.04368   0.03514  -0.1088  0.1084  1.0000  -4.8667   0.0000   0.0000   0.0000   0.3057
  11.000   1.5565   0.04815   0.03999  -0.1033  0.0922  1.0000  -5.0661   0.0000   0.0000   0.0000   0.3010
  11.500   1.5536   0.05335   0.04548  -0.0982  0.0786  1.0000  -5.2239   0.0000   0.0000   0.0000   0.2970
  12.000   1.5486   0.05967   0.05215  -0.0940  0.0687  1.0000  -5.3355   0.0000   0.0000   0.0000   0.2936
  12.500   1.5397   0.06726   0.06025  -0.0910  0.0618  1.0000  -5.3961   0.0000   0.0000   0.0000   0.2911
  13.000   1.5324   0.07486   0.06806  -0.0892  0.0571  1.0000  -5.4869   0.0000   0.0000   0.0000   0.2892
  13.500   1.5076   0.08565   0.07953  -0.0897  0.0549  1.0000  -5.4284   0.0000   0.0000   0.0000   0.2896
  14.000   1.4714   0.09888   0.09339  -0.0938  0.0538  1.0000  -5.2982   0.0000   0.0000   0.0000   0.2929
  14.500   1.4254   0.11565   0.11071  -0.1028  0.0537  1.0000  -5.0700   0.0000   0.0000   0.0000   0.3005
  15.000   1.3651   0.13873   0.13417  -0.1190  0.0547  1.0000  -4.6462   0.0000   0.0000   0.0000   0.3150
  15.500   1.2956   0.17016   0.16572  -0.1417  0.0562  1.0000  -3.8770   0.0000   0.0000   0.0000   0.3374
  16.000   1.2655   0.19453   0.18997  -0.1575  0.0560  1.0000  -3.2604   0.0000   0.0000   0.0000   0.3525
  16.500   1.2619   0.20988   0.20528  -0.1671  0.0561  1.0000  -2.9673   0.0000   0.0000   0.0000   0.3601
  17.000   1.2657   0.22265   0.21802  -0.1751  0.0560  1.0000  -2.7990   0.0000   0.0000   0.0000   0.3654
  17.500   1.2700   0.23484   0.23018  -0.1836  0.0552  1.0000  -2.6237   0.0000   0.0000   0.0000   0.3709
  18.000   1.2787   0.24502   0.24037  -0.1905  0.0550  1.0000  -2.5190   0.0000   0.0000   0.0000   0.3746


