xflr5 v6.61

 Calculated polar for: E63_14_00

 1 1 Reynolds number fixed          Mach number fixed         

 xtrf =   1.000 (top)        1.000 (bottom)
 Mach =   0.200     Re =     0.050 e 6     Ncrit =   7.000

  alpha     CL        CD       CDp       Cm    Top Xtr Bot Xtr   Cpmin    Chinge    XCp    
 ------- -------- --------- --------- -------- ------- ------- -------- --------- ---------
 -27.500  -0.7185   0.31995   0.31063   0.0386  1.0000  0.0567  -1.5274   0.0000   0.0000   0.0000   0.2623
 -27.000  -0.7026   0.31383   0.30448   0.0357  1.0000  0.0583  -1.4808   0.0000   0.0000   0.0000   0.2602
 -26.500  -0.6875   0.30897   0.29962   0.0322  1.0000  0.0603  -1.4536   0.0000   0.0000   0.0000   0.2571
 -26.000  -0.6726   0.30429   0.29494   0.0286  1.0000  0.0621  -1.4353   0.0000   0.0000   0.0000   0.2537
 -25.500  -0.6580   0.29981   0.29046   0.0249  1.0000  0.0639  -1.4238   0.0000   0.0000   0.0000   0.2498
 -25.000  -0.6441   0.29611   0.28678   0.0210  1.0000  0.0651  -1.4310   0.0000   0.0000   0.0000   0.2453
 -24.500  -0.6318   0.29372   0.28440   0.0167  1.0000  0.0656  -1.4700   0.0000   0.0000   0.0000   0.2401
 -21.500  -0.3343   0.22650   0.21872  -0.0185  1.0000  0.0779  -0.8890   0.0000   0.0000   0.0000   0.1726
 -21.000  -0.3248   0.22244   0.21466  -0.0196  1.0000  0.0814  -0.8780   0.0000   0.0000   0.0000   0.1675
 -20.500  -0.3180   0.21925   0.21148  -0.0211  1.0000  0.0847  -0.8910   0.0000   0.0000   0.0000   0.1615
 -20.000  -0.3154   0.21775   0.20998  -0.0231  1.0000  0.0862  -0.9309   0.0000   0.0000   0.0000   0.1549
 -19.500  -0.3062   0.21289   0.20516  -0.0241  1.0000  0.0872  -0.9251   0.0000   0.0000   0.0000   0.1494
 -19.000  -0.2942   0.20778   0.20004  -0.0245  1.0000  0.0899  -0.8923   0.0000   0.0000   0.0000   0.1444
 -18.500  -0.2862   0.20421   0.19649  -0.0254  1.0000  0.0930  -0.8951   0.0000   0.0000   0.0000   0.1389
 -18.000  -0.2818   0.20169   0.19398  -0.0267  1.0000  0.0960  -0.9304   0.0000   0.0000   0.0000   0.1329
 -17.500  -0.2838   0.20137   0.19368  -0.0284  1.0000  0.0971  -0.9979   0.0000   0.0000   0.0000   0.1278
 -17.000  -0.2674   0.19415   0.18651  -0.0281  1.0000  0.0994  -0.9572   0.0000   0.0000   0.0000   0.1223
 -16.500  -0.2591   0.19051   0.18290  -0.0285  1.0000  0.1030  -0.9567   0.0000   0.0000   0.0000   0.1174
 -16.000  -0.2568   0.18834   0.18075  -0.0294  1.0000  0.1066  -0.9905   0.0000   0.0000   0.0000   0.1129
 -15.500  -0.2614   0.18799   0.18044  -0.0307  1.0000  0.1079  -1.0572   0.0000   0.0000   0.0000   0.1103
 -15.000  -0.2443   0.18115   0.17362  -0.0298  1.0000  0.1115  -1.0060   0.0000   0.0000   0.0000   0.1051
 -14.500  -0.2406   0.17820   0.17070  -0.0301  1.0000  0.1163  -1.0227   0.0000   0.0000   0.0000   0.1021
 -14.000  -0.2503   0.17743   0.16996  -0.0314  1.0000  0.1186  -1.1055   0.0000   0.0000   0.0000   0.1025
 -13.500  -0.2325   0.17032   0.16292  -0.0301  1.0000  0.1231  -1.0521   0.0000   0.0000   0.0000   0.0980
 -13.000  -0.2362   0.16746   0.16011  -0.0305  1.0000  0.1287  -1.1005   0.0000   0.0000   0.0000   0.0988
 -12.500  -0.2274   0.16216   0.15489  -0.0295  1.0000  0.1361  -1.0890   0.0000   0.0000   0.0000   0.0980
 -12.000  -0.2255   0.15782   0.15062  -0.0290  1.0000  0.1457  -1.1301   0.0000   0.0000   0.0000   0.1000
 -11.500  -0.2258   0.15339   0.14627  -0.0284  1.0000  0.1545  -1.1825   0.0000   0.0000   0.0000   0.1034
 -11.000  -0.2237   0.14886   0.14182  -0.0272  1.0000  0.1666  -1.2122   0.0000   0.0000   0.0000   0.1081
 -10.500  -0.2294   0.14486   0.13791  -0.0266  1.0000  0.1747  -1.2630   0.0000   0.0000   0.0000   0.1154
 -10.000  -0.2275   0.14030   0.13342  -0.0250  1.0000  0.1825  -1.2693   0.0000   0.0000   0.0000   0.1219
  -9.500  -0.2277   0.13548   0.12871  -0.0235  1.0000  0.1869  -1.2750   0.0000   0.0000   0.0000   0.1297
  -9.000  -0.2352   0.13186   0.12516  -0.0220  1.0000  0.1942  -1.2913   0.0000   0.0000   0.0000   0.1412
  -8.500  -0.2329   0.12692   0.12033  -0.0197  1.0000  0.1987  -1.2676   0.0000   0.0000   0.0000   0.1508
  -8.000  -0.2492   0.12389   0.11743  -0.0178  1.0000  0.2056  -1.2960   0.0000   0.0000   0.0000   0.1657
  -7.500  -0.2447   0.11924   0.11291  -0.0148  1.0000  0.2134  -1.2466   0.0000   0.0000   0.0000   0.1776
  -7.000  -0.2537   0.11557   0.10939  -0.0120  1.0000  0.2212  -1.2360   0.0000   0.0000   0.0000   0.1921
  -6.500  -0.2861   0.11340   0.10742  -0.0094  1.0000  0.2282  -1.2919   0.0000   0.0000   0.0000   0.2085
  -6.000  -0.2793   0.10884   0.10296  -0.0059  1.0000  0.2349  -1.2233   0.0000   0.0000   0.0000   0.2208
  -5.500  -0.3178   0.10650   0.10083  -0.0025  1.0000  0.2394  -1.2852   0.0000   0.0000   0.0000   0.2355
  -4.500  -0.3973   0.08376   0.07754  -0.0235  1.0000  0.1516  -1.8657   0.0000   0.0000   0.0000   0.1837
  -4.000  -0.3364   0.07317   0.06674  -0.0398  0.9872  0.1450  -1.8104   0.0000   0.0000   0.0000   0.1236
  -3.500  -0.2303   0.05618   0.04884  -0.0728  0.9718  0.1524  -1.9092   0.0000   0.0000   0.0000  -0.0778
  -3.000  -0.1342   0.04972   0.04177  -0.0878  0.9538  0.1681  -1.8209   0.0000   0.0000   0.0000  -0.4221
  -2.500  -0.0379   0.04542   0.03676  -0.0999  0.9344  0.1919  -1.6841   0.0000   0.0000   0.0000  -2.4373
  -2.000   0.0540   0.04274   0.03352  -0.1088  0.9135  0.2182  -1.5433   0.0000   0.0000   0.0000   2.2939
  -1.500   0.1393   0.04124   0.03180  -0.1148  0.8910  0.2448  -1.3788   0.0000   0.0000   0.0000   1.0819
  -1.000   0.2264   0.03972   0.03003  -0.1204  0.8681  0.2750  -1.2083   0.0000   0.0000   0.0000   0.7846
  -0.500   0.3014   0.03859   0.02879  -0.1234  0.8412  0.3070  -1.0466   0.0000   0.0000   0.0000   0.6599
   0.000   0.3829   0.03740   0.02756  -0.1267  0.8162  0.3492  -0.8724   0.0000   0.0000   0.0000   0.5796
   0.500   0.4646   0.03605   0.02629  -0.1292  0.7912  0.3995  -0.8845   0.0000   0.0000   0.0000   0.5256
   1.000   0.5393   0.03473   0.02513  -0.1301  0.7636  0.4660  -0.9699   0.0000   0.0000   0.0000   0.4878
   1.500   0.6246   0.03261   0.02334  -0.1315  0.7391  0.5653  -1.0726   0.0000   0.0000   0.0000   0.4563
   2.000   0.6885   0.03080   0.02213  -0.1290  0.7099  0.7165  -1.1634   0.0000   0.0000   0.0000   0.4324
   2.500   0.7638   0.02891   0.02021  -0.1291  0.6790  1.0000  -1.2758   0.0000   0.0000   0.0000   0.4133
   3.000   0.8545   0.02839   0.01914  -0.1328  0.6436  1.0000  -1.4058   0.0000   0.0000   0.0000   0.3991
   3.500   0.9364   0.02830   0.01859  -0.1351  0.6064  1.0000  -1.5298   0.0000   0.0000   0.0000   0.3873
   4.000   0.9974   0.02903   0.01899  -0.1345  0.5678  1.0000  -1.6323   0.0000   0.0000   0.0000   0.3772
   4.500   1.0596   0.02989   0.01951  -0.1342  0.5319  1.0000  -1.7375   0.0000   0.0000   0.0000   0.3683
   5.000   1.1147   0.03109   0.02041  -0.1330  0.4984  1.0000  -1.8417   0.0000   0.0000   0.0000   0.3602
   5.500   1.1616   0.03263   0.02178  -0.1307  0.4676  1.0000  -1.9450   0.0000   0.0000   0.0000   0.3528
   6.000   1.2089   0.03429   0.02331  -0.1286  0.4399  1.0000  -2.0493   0.0000   0.0000   0.0000   0.3459
   6.500   1.2511   0.03616   0.02508  -0.1258  0.4143  1.0000  -2.1483   0.0000   0.0000   0.0000   0.3394
   7.000   1.2927   0.03810   0.02691  -0.1230  0.3909  1.0000  -2.2556   0.0000   0.0000   0.0000   0.3333
   7.500   1.3282   0.04032   0.02911  -0.1196  0.3696  1.0000  -2.3538   0.0000   0.0000   0.0000   0.3274
   8.000   1.3588   0.04276   0.03169  -0.1156  0.3503  1.0000  -2.4518   0.0000   0.0000   0.0000   0.3216
   8.500   1.3999   0.04520   0.03410  -0.1132  0.3339  1.0000  -2.5687   0.0000   0.0000   0.0000   0.3167
   9.000   1.4116   0.04882   0.03795  -0.1074  0.3203  1.0000  -2.6338   0.0000   0.0000   0.0000   0.3111
   9.500   1.4114   0.05302   0.04241  -0.1007  0.3079  1.0000  -2.6781   0.0000   0.0000   0.0000   0.3057
  10.000   1.3983   0.05811   0.04779  -0.0937  0.2968  1.0000  -2.6977   0.0000   0.0000   0.0000   0.3006
  10.500   1.3636   0.06520   0.05521  -0.0870  0.2869  1.0000  -2.6742   0.0000   0.0000   0.0000   0.2966
  11.000   1.0434   0.11430   0.10504  -0.0987  0.2726  1.0000  -1.9203   0.0000   0.0000   0.0000   0.3277
  11.500   1.0194   0.12718   0.11799  -0.1032  0.2618  1.0000  -1.8381   0.0000   0.0000   0.0000   0.3339
  12.000   1.0115   0.13794   0.12890  -0.1069  0.2547  1.0000  -1.7957   0.0000   0.0000   0.0000   0.3378
  12.500   1.0109   0.14747   0.13849  -0.1104  0.2477  1.0000  -1.7704   0.0000   0.0000   0.0000   0.3407
  13.000   0.9997   0.15830   0.14939  -0.1155  0.2409  1.0000  -1.7245   0.0000   0.0000   0.0000   0.3466
  13.500   1.0004   0.16800   0.15915  -0.1200  0.2389  1.0000  -1.7051   0.0000   0.0000   0.0000   0.3504
  14.000   1.0098   0.17569   0.16689  -0.1232  0.2332  1.0000  -1.7186   0.0000   0.0000   0.0000   0.3517
  14.500   1.0108   0.18461   0.17588  -0.1280  0.2325  1.0000  -1.6886   0.0000   0.0000   0.0000   0.3557
  17.000   1.0491   0.22496   0.21658  -0.1520  0.2521  1.0000  -1.5401   0.0000   0.0000   0.0000   0.3703
  17.500   1.0659   0.23094   0.22260  -0.1550  0.2430  1.0000  -1.5436   0.0000   0.0000   0.0000   0.3698
  19.000   1.1125   0.24812   0.24000  -0.1651  0.2183  1.0000  -1.6353   0.0000   0.0000   0.0000   0.3696
  19.500   1.1300   0.25424   0.24618  -0.1683  0.2116  1.0000  -1.6970   0.0000   0.0000   0.0000   0.3690
  20.000   1.1486   0.26024   0.25225  -0.1713  0.2043  1.0000  -1.7643   0.0000   0.0000   0.0000   0.3680


