xflr5 v6.61

 Calculated polar for: E63_14_00

 1 1 Reynolds number fixed          Mach number fixed         

 xtrf =   1.000 (top)        1.000 (bottom)
 Mach =   0.200     Re =     0.070 e 6     Ncrit =   7.000

  alpha     CL        CD       CDp       Cm    Top Xtr Bot Xtr   Cpmin    Chinge    XCp    
 ------- -------- --------- --------- -------- ------- ------- -------- --------- ---------
 -27.000  -0.4250   0.27050   0.26403   0.0011  1.0000  0.0465  -0.8794   0.0000   0.0000   0.0000   0.2280
 -26.500  -0.4150   0.26491   0.25843  -0.0005  1.0000  0.0475  -0.8484   0.0000   0.0000   0.0000   0.2248
 -26.000  -0.4064   0.26057   0.25407  -0.0023  1.0000  0.0490  -0.8321   0.0000   0.0000   0.0000   0.2207
 -25.500  -0.3981   0.25649   0.24996  -0.0041  1.0000  0.0509  -0.8225   0.0000   0.0000   0.0000   0.2162
 -25.000  -0.3903   0.25248   0.24593  -0.0061  1.0000  0.0530  -0.8201   0.0000   0.0000   0.0000   0.2113
 -24.500  -0.3830   0.24874   0.24217  -0.0081  1.0000  0.0545  -0.8327   0.0000   0.0000   0.0000   0.2058
 -24.000  -0.3772   0.24571   0.23913  -0.0104  1.0000  0.0554  -0.8750   0.0000   0.0000   0.0000   0.1997
 -23.500  -0.3734   0.24375   0.23716  -0.0127  1.0000  0.0557  -0.9285   0.0000   0.0000   0.0000   0.1933
 -23.000  -0.3650   0.23885   0.23228  -0.0143  1.0000  0.0561  -0.9406   0.0000   0.0000   0.0000   0.1882
 -22.500  -0.3520   0.23250   0.22590  -0.0151  1.0000  0.0574  -0.8998   0.0000   0.0000   0.0000   0.1847
 -22.000  -0.3424   0.22832   0.22173  -0.0163  1.0000  0.0590  -0.8886   0.0000   0.0000   0.0000   0.1800
 -21.500  -0.3338   0.22447   0.21789  -0.0177  1.0000  0.0610  -0.8886   0.0000   0.0000   0.0000   0.1747
 -21.000  -0.3261   0.22081   0.21422  -0.0192  1.0000  0.0632  -0.8983   0.0000   0.0000   0.0000   0.1690
 -20.500  -0.3206   0.21782   0.21124  -0.0210  1.0000  0.0650  -0.9295   0.0000   0.0000   0.0000   0.1624
 -20.000  -0.3206   0.21700   0.21043  -0.0232  1.0000  0.0658  -0.9950   0.0000   0.0000   0.0000   0.1555
 -19.500  -0.3045   0.20968   0.20315  -0.0232  1.0000  0.0676  -0.9304   0.0000   0.0000   0.0000   0.1515
 -19.000  -0.2949   0.20585   0.19930  -0.0239  1.0000  0.0706  -0.9078   0.0000   0.0000   0.0000   0.1466
 -18.500  -0.2882   0.20256   0.19603  -0.0250  1.0000  0.0736  -0.9136   0.0000   0.0000   0.0000   0.1408
 -18.000  -0.2868   0.20077   0.19425  -0.0268  1.0000  0.0753  -0.9740   0.0000   0.0000   0.0000   0.1344
 -17.500  -0.2887   0.19981   0.19333  -0.0285  1.0000  0.0759  -1.0489   0.0000   0.0000   0.0000   0.1292
 -17.000  -0.2698   0.19207   0.18561  -0.0277  1.0000  0.0777  -0.9824   0.0000   0.0000   0.0000   0.1246
 -16.500  -0.2611   0.18840   0.18197  -0.0279  1.0000  0.0802  -0.9747   0.0000   0.0000   0.0000   0.1202
 -16.000  -0.2555   0.18528   0.17888  -0.0285  1.0000  0.0832  -0.9891   0.0000   0.0000   0.0000   0.1157
 -15.500  -0.2561   0.18350   0.17711  -0.0296  1.0000  0.0857  -1.0440   0.0000   0.0000   0.0000   0.1116
 -15.000  -0.2650   0.18353   0.17717  -0.0313  1.0000  0.0865  -1.1383   0.0000   0.0000   0.0000   0.1098
 -14.500  -0.2445   0.17576   0.16943  -0.0298  1.0000  0.0886  -1.0574   0.0000   0.0000   0.0000   0.1053
 -14.000  -0.2377   0.17190   0.16562  -0.0295  1.0000  0.0919  -1.0490   0.0000   0.0000   0.0000   0.1031
 -13.500  -0.2390   0.16868   0.16243  -0.0301  1.0000  0.0959  -1.0921   0.0000   0.0000   0.0000   0.1018
 -13.000  -0.2532   0.16672   0.16049  -0.0316  1.0000  0.0971  -1.2036   0.0000   0.0000   0.0000   0.1038
 -12.500  -0.2322   0.15942   0.15328  -0.0294  1.0000  0.1004  -1.1180   0.0000   0.0000   0.0000   0.1013
 -12.000  -0.2330   0.15530   0.14921  -0.0293  1.0000  0.1061  -1.1544   0.0000   0.0000   0.0000   0.1030
 -11.500  -0.2391   0.15050   0.14449  -0.0295  1.0000  0.1087  -1.2504   0.0000   0.0000   0.0000   0.1063
 -11.000  -0.2347   0.14571   0.13976  -0.0282  1.0000  0.1172  -1.2766   0.0000   0.0000   0.0000   0.1103
 -10.500  -0.2354   0.14121   0.13535  -0.0270  1.0000  0.1280  -1.3157   0.0000   0.0000   0.0000   0.1167
 -10.000  -0.2447   0.13770   0.13193  -0.0261  1.0000  0.1399  -1.3687   0.0000   0.0000   0.0000   0.1263
  -9.500  -0.2345   0.13241   0.12673  -0.0235  1.0000  0.1480  -1.3263   0.0000   0.0000   0.0000   0.1332
  -9.000  -0.2608   0.12939   0.12383  -0.0234  1.0000  0.1514  -1.4299   0.0000   0.0000   0.0000   0.1461
  -8.500  -0.2434   0.12365   0.11812  -0.0199  1.0000  0.1554  -1.3404   0.0000   0.0000   0.0000   0.1539
  -8.000  -0.2577   0.12014   0.11472  -0.0183  1.0000  0.1609  -1.3688   0.0000   0.0000   0.0000   0.1666
  -7.500  -0.2778   0.11625   0.11097  -0.0167  1.0000  0.1629  -1.4160   0.0000   0.0000   0.0000   0.1791
  -7.000  -0.2716   0.11190   0.10672  -0.0132  1.0000  0.1665  -1.3468   0.0000   0.0000   0.0000   0.1912
  -5.500  -0.3784   0.08584   0.08035  -0.0331  0.9876  0.1186  -2.0466   0.0000   0.0000   0.0000   0.1530
  -5.000  -0.3292   0.07641   0.07083  -0.0454  0.9717  0.1168  -1.9721   0.0000   0.0000   0.0000   0.1019
  -4.500  -0.2592   0.05510   0.04886  -0.0780  0.9567  0.1137  -2.1302   0.0000   0.0000   0.0000  -0.0642
  -4.000  -0.1555   0.04143   0.03381  -0.1022  0.9457  0.1243  -2.1970   0.0000   0.0000   0.0000  -0.4282
  -3.500  -0.0652   0.03819   0.02998  -0.1114  0.9314  0.1435  -2.0222   0.0000   0.0000   0.0000  -1.5007
  -3.000   0.0139   0.03641   0.02785  -0.1167  0.9133  0.1651  -1.8257   0.0000   0.0000   0.0000   8.8194
  -2.500   0.0951   0.03467   0.02578  -0.1217  0.8954  0.1865  -1.6441   0.0000   0.0000   0.0000   1.5497
  -2.000   0.1810   0.03303   0.02394  -0.1267  0.8786  0.2090  -1.4611   0.0000   0.0000   0.0000   0.9579
  -1.500   0.2582   0.03165   0.02245  -0.1298  0.8581  0.2328  -1.2826   0.0000   0.0000   0.0000   0.7560
  -1.000   0.3361   0.03025   0.02096  -0.1325  0.8373  0.2613  -1.1040   0.0000   0.0000   0.0000   0.6453
  -0.500   0.4127   0.02885   0.01961  -0.1345  0.8163  0.2944  -0.9249   0.0000   0.0000   0.0000   0.5753
   0.000   0.4914   0.02726   0.01816  -0.1364  0.7952  0.3353  -0.8948   0.0000   0.0000   0.0000   0.5256
   0.500   0.5746   0.02554   0.01660  -0.1387  0.7727  0.3886  -0.9890   0.0000   0.0000   0.0000   0.4885
   1.000   0.6567   0.02403   0.01529  -0.1408  0.7454  0.4614  -1.0867   0.0000   0.0000   0.0000   0.4607
   1.500   0.7410   0.02268   0.01421  -0.1432  0.7138  0.5656  -1.1960   0.0000   0.0000   0.0000   0.4389
   2.000   0.8077   0.02170   0.01364  -0.1423  0.6769  0.7204  -1.3015   0.0000   0.0000   0.0000   0.4211
   2.500   0.8674   0.02099   0.01291  -0.1405  0.6374  1.0000  -1.4023   0.0000   0.0000   0.0000   0.4061
   3.000   0.9358   0.02147   0.01283  -0.1416  0.5954  1.0000  -1.5126   0.0000   0.0000   0.0000   0.3948
   3.500   0.9925   0.02224   0.01318  -0.1407  0.5547  1.0000  -1.6126   0.0000   0.0000   0.0000   0.3845
   4.000   1.0464   0.02316   0.01371  -0.1393  0.5173  1.0000  -1.7109   0.0000   0.0000   0.0000   0.3752
   4.500   1.0964   0.02422   0.01448  -0.1374  0.4827  1.0000  -1.8056   0.0000   0.0000   0.0000   0.3667
   5.000   1.1456   0.02539   0.01535  -0.1355  0.4516  1.0000  -1.9081   0.0000   0.0000   0.0000   0.3589
   5.500   1.1920   0.02664   0.01641  -0.1331  0.4228  1.0000  -2.0156   0.0000   0.0000   0.0000   0.3516
   6.000   1.2353   0.02798   0.01755  -0.1303  0.3960  1.0000  -2.1204   0.0000   0.0000   0.0000   0.3447
   6.500   1.2767   0.02941   0.01885  -0.1273  0.3718  1.0000  -2.2249   0.0000   0.0000   0.0000   0.3382
   7.000   1.3187   0.03097   0.02030  -0.1245  0.3507  1.0000  -2.3376   0.0000   0.0000   0.0000   0.3322
   7.500   1.3622   0.03262   0.02192  -0.1221  0.3320  1.0000  -2.4533   0.0000   0.0000   0.0000   0.3266
   8.000   1.3997   0.03451   0.02385  -0.1188  0.3150  1.0000  -2.5684   0.0000   0.0000   0.0000   0.3211
   8.500   1.4435   0.03644   0.02570  -0.1166  0.3002  1.0000  -2.6960   0.0000   0.0000   0.0000   0.3162
   9.000   1.4695   0.03870   0.02813  -0.1118  0.2860  1.0000  -2.7943   0.0000   0.0000   0.0000   0.3108
   9.500   1.4956   0.04097   0.03050  -0.1072  0.2726  1.0000  -2.8949   0.0000   0.0000   0.0000   0.3056
  10.000   1.5203   0.04344   0.03309  -0.1027  0.2606  1.0000  -2.9926   0.0000   0.0000   0.0000   0.3006
  10.500   1.5385   0.04634   0.03624  -0.0978  0.2501  1.0000  -3.1013   0.0000   0.0000   0.0000   0.2957
  11.000   1.5495   0.04979   0.03994  -0.0925  0.2410  1.0000  -3.2080   0.0000   0.0000   0.0000   0.2910
  11.500   1.5583   0.05343   0.04379  -0.0874  0.2325  1.0000  -3.3112   0.0000   0.0000   0.0000   0.2866
  12.000   1.5765   0.05678   0.04724  -0.0837  0.2242  1.0000  -3.4369   0.0000   0.0000   0.0000   0.2826
  12.500   1.5126   0.06537   0.05652  -0.0760  0.2186  1.0000  -3.3618   0.0000   0.0000   0.0000   0.2789
  13.000   1.4989   0.07192   0.06331  -0.0731  0.2126  1.0000  -3.4013   0.0000   0.0000   0.0000   0.2765
  14.000   1.0875   0.15439   0.14684  -0.1100  0.1912  1.0000  -2.1121   0.0000   0.0000   0.0000   0.3293
  14.500   1.0617   0.16955   0.16208  -0.1189  0.1860  1.0000  -1.9733   0.0000   0.0000   0.0000   0.3398
  15.000   1.0825   0.17515   0.16772  -0.1203  0.1809  1.0000  -2.0384   0.0000   0.0000   0.0000   0.3380
  15.500   1.0724   0.18620   0.17884  -0.1273  0.1742  1.0000  -1.9518   0.0000   0.0000   0.0000   0.3451
  16.000   1.0950   0.19198   0.18467  -0.1288  0.1705  1.0000  -2.0113   0.0000   0.0000   0.0000   0.3430
  16.500   1.0828   0.20314   0.19590  -0.1369  0.1677  1.0000  -1.8844   0.0000   0.0000   0.0000   0.3513
  17.000   0.8207   0.21038   0.20457  -0.1250  0.2023  1.0000  -1.0978   0.0000   0.0000   0.0000   0.3816
  18.000   1.1242   0.22513   0.21813  -0.1478  0.1600  1.0000  -1.8485   0.0000   0.0000   0.0000   0.3536
  19.500   1.1551   0.25122   0.24443  -0.1631  0.1708  1.0000  -1.8710   0.0000   0.0000   0.0000   0.3607
  20.000   1.1537   0.25628   0.24952  -0.1703  0.1685  1.0000  -1.8235   0.0000   0.0000   0.0000   0.3662


