xflr5 v6.61

 Calculated polar for: E63_4_27

 1 1 Reynolds number fixed          Mach number fixed         

 xtrf =   1.000 (top)        1.000 (bottom)
 Mach =   0.200     Re =     0.080 e 6     Ncrit =   9.000

  alpha     CL        CD       CDp       Cm    Top Xtr Bot Xtr   Cpmin    Chinge    XCp    
 ------- -------- --------- --------- -------- ------- ------- -------- --------- ---------
 -18.000  -0.5791   0.22706   0.22065   0.0044  1.0000  0.0226  -1.3900   0.0000   0.0000   0.0000   0.2530
 -17.500  -0.5644   0.22028   0.21387   0.0024  1.0000  0.0236  -1.3202   0.0000   0.0000   0.0000   0.2500
 -17.000  -0.5499   0.21449   0.20806   0.0001  1.0000  0.0248  -1.2759   0.0000   0.0000   0.0000   0.2462
 -16.500  -0.5356   0.20894   0.20253  -0.0022  1.0000  0.0262  -1.2435   0.0000   0.0000   0.0000   0.2420
 -16.000  -0.5216   0.20404   0.19766  -0.0048  1.0000  0.0274  -1.2470   0.0000   0.0000   0.0000   0.2372
 -15.500  -0.5100   0.20113   0.19480  -0.0079  1.0000  0.0280  -1.3186   0.0000   0.0000   0.0000   0.2311
 -15.000  -0.5029   0.19984   0.19357  -0.0111  1.0000  0.0283  -1.4093   0.0000   0.0000   0.0000   0.2249
 -14.500  -0.4826   0.18679   0.18054  -0.0108  1.0000  0.0293  -1.3077   0.0000   0.0000   0.0000   0.2243
 -14.000  -0.4693   0.18016   0.17393  -0.0120  1.0000  0.0308  -1.2747   0.0000   0.0000   0.0000   0.2214
 -13.500  -0.4569   0.17431   0.16807  -0.0134  1.0000  0.0323  -1.2684   0.0000   0.0000   0.0000   0.2178
 -13.000  -0.4450   0.16863   0.16243  -0.0148  1.0000  0.0339  -1.2726   0.0000   0.0000   0.0000   0.2139
 -12.500  -0.4338   0.16324   0.15709  -0.0163  1.0000  0.0356  -1.2871   0.0000   0.0000   0.0000   0.2097
 -12.000  -0.4244   0.15891   0.15281  -0.0182  1.0000  0.0368  -1.3278   0.0000   0.0000   0.0000   0.2046
 -11.500  -0.4191   0.15608   0.15006  -0.0204  1.0000  0.0372  -1.3939   0.0000   0.0000   0.0000   0.1990
 -11.000  -0.4057   0.14779   0.14184  -0.0204  1.0000  0.0380  -1.3429   0.0000   0.0000   0.0000   0.1973
 -10.500  -0.3935   0.14072   0.13481  -0.0201  1.0000  0.0401  -1.2633   0.0000   0.0000   0.0000   0.1964
 -10.000  -0.3843   0.13533   0.12948  -0.0206  1.0000  0.0423  -1.2351   0.0000   0.0000   0.0000   0.1941
  -9.750  -0.3803   0.13285   0.12703  -0.0209  1.0000  0.0435  -1.2294   0.0000   0.0000   0.0000   0.1928
  -9.500  -0.3771   0.13068   0.12491  -0.0213  1.0000  0.0445  -1.2332   0.0000   0.0000   0.0000   0.1912
  -9.250  -0.3755   0.12916   0.12344  -0.0220  1.0000  0.0453  -1.2536   0.0000   0.0000   0.0000   0.1894
  -9.000  -0.3762   0.12824   0.12253  -0.0227  1.0000  0.0457  -1.2868   0.0000   0.0000   0.0000   0.1877
  -8.750  -0.3789   0.12762   0.12199  -0.0233  1.0000  0.0459  -1.3241   0.0000   0.0000   0.0000   0.1867
  -8.500  -0.3830   0.12709   0.12154  -0.0236  1.0000  0.0461  -1.3625   0.0000   0.0000   0.0000   0.1867
  -8.250  -0.3619   0.11789   0.11231  -0.0212  1.0000  0.0482  -1.2035   0.0000   0.0000   0.0000   0.1894
  -8.000  -0.3585   0.11522   0.10969  -0.0206  1.0000  0.0499  -1.1898   0.0000   0.0000   0.0000   0.1905
  -7.750  -0.3566   0.11295   0.10747  -0.0202  1.0000  0.0516  -1.1919   0.0000   0.0000   0.0000   0.1915
  -7.500  -0.3564   0.11100   0.10559  -0.0198  1.0000  0.0533  -1.2062   0.0000   0.0000   0.0000   0.1927
  -7.250  -0.3590   0.10971   0.10437  -0.0193  1.0000  0.0546  -1.2375   0.0000   0.0000   0.0000   0.1945
  -7.000  -0.3660   0.10916   0.10392  -0.0185  1.0000  0.0552  -1.2826   0.0000   0.0000   0.0000   0.1981
  -6.750  -0.3737   0.10877   0.10363  -0.0180  1.0000  0.0556  -1.3342   0.0000   0.0000   0.0000   0.2004
  -6.500  -0.3749   0.10803   0.10298  -0.0205  1.0000  0.0558  -1.3998   0.0000   0.0000   0.0000   0.1941
  -6.250  -0.3648   0.10118   0.09613  -0.0150  1.0000  0.0583  -1.2731   0.0000   0.0000   0.0000   0.2075
  -6.000  -0.3626   0.09870   0.09371  -0.0143  1.0000  0.0603  -1.2622   0.0000   0.0000   0.0000   0.2092
  -5.750  -0.3606   0.09648   0.09155  -0.0144  1.0000  0.0624  -1.2705   0.0000   0.0000   0.0000   0.2086
  -5.500  -0.3568   0.09456   0.08970  -0.0164  1.0000  0.0645  -1.3035   0.0000   0.0000   0.0000   0.2028
  -5.250  -0.3450   0.09330   0.08849  -0.0239  1.0000  0.0657  -1.3920   0.0000   0.0000   0.0000   0.1794
  -5.000  -0.3423   0.08917   0.08443  -0.0209  1.0000  0.0668  -1.3520   0.0000   0.0000   0.0000   0.1876
  -4.750  -0.3376   0.08594   0.08123  -0.0190  1.0000  0.0692  -1.3072   0.0000   0.0000   0.0000   0.1925
  -4.500  -0.3267   0.08315   0.07847  -0.0211  1.0000  0.0725  -1.3063   0.0000   0.0000   0.0000   0.1841
  -4.000  -0.2942   0.07670   0.07201  -0.0289  1.0000  0.0781  -1.3301   0.0000   0.0000   0.0000   0.1501
  -3.750  -0.2782   0.07359   0.06891  -0.0312  1.0000  0.0829  -1.3085   0.0000   0.0000   0.0000   0.1363
  -3.500  -0.2450   0.06968   0.06497  -0.0400  1.0000  0.0880  -1.3360   0.0000   0.0000   0.0000   0.0846
  -3.250  -0.1969   0.06580   0.06096  -0.0525  1.0000  0.0974  -1.3601   0.0000   0.0000   0.0000  -0.0192
  -3.000  -0.1953   0.06266   0.05791  -0.0479  1.0000  0.1010  -1.2884   0.0000   0.0000   0.0000   0.0021
  -2.750  -0.1577   0.05881   0.05400  -0.0553  1.0000  0.1112  -1.2706   0.0000   0.0000   0.0000  -0.1037
  -2.500  -0.1202   0.05518   0.05030  -0.0617  1.0000  0.1239  -1.2351   0.0000   0.0000   0.0000  -0.2672
  -2.250  -0.0708   0.05125   0.04624  -0.0711  1.0000  0.1428  -1.1954   0.0000   0.0000   0.0000  -0.7610
  -1.000   0.2632   0.03047   0.02325  -0.1234  1.0000  0.1007  -1.1123   0.0000   0.0000   0.0000   0.7198
  -0.750   0.3272   0.02744   0.01921  -0.1294  1.0000  0.0743  -1.2565   0.0000   0.0000   0.0000   0.6461
  -0.500   0.3729   0.02558   0.01688  -0.1325  1.0000  0.0700  -1.2897   0.0000   0.0000   0.0000   0.6057
  -0.250   0.4112   0.02453   0.01551  -0.1344  1.0000  0.0798  -1.2713   0.0000   0.0000   0.0000   0.5770
   0.000   0.4499   0.02353   0.01434  -0.1361  1.0000  0.0889  -1.2741   0.0000   0.0000   0.0000   0.5523
   0.250   0.4919   0.02259   0.01342  -0.1384  1.0000  0.1319  -1.2777   0.0000   0.0000   0.0000   0.5309
   0.500   0.5258   0.02049   0.01302  -0.1391  1.0000  1.0000  -1.2111   0.0000   0.0000   0.0000   0.5138
   0.750   0.5492   0.02109   0.01330  -0.1388  1.0000  1.0000  -0.9832   0.0000   0.0000   0.0000   0.5017
   1.000   0.5717   0.02175   0.01373  -0.1384  1.0000  1.0000  -0.7574   0.0000   0.0000   0.0000   0.4910
   1.250   0.5935   0.02247   0.01430  -0.1381  1.0000  1.0000  -0.5593   0.0000   0.0000   0.0000   0.4813
   1.500   0.6146   0.02326   0.01498  -0.1377  1.0000  1.0000  -0.5830   0.0000   0.0000   0.0000   0.4725
   1.750   0.6349   0.02412   0.01577  -0.1374  1.0000  1.0000  -0.6078   0.0000   0.0000   0.0000   0.4646
   2.000   0.6544   0.02508   0.01669  -0.1371  1.0000  1.0000  -0.6335   0.0000   0.0000   0.0000   0.4574
   2.250   0.6941   0.02610   0.01769  -0.1406  0.9899  1.0000  -0.6825   0.0000   0.0000   0.0000   0.4503
   2.500   0.7438   0.02678   0.01837  -0.1456  0.9739  1.0000  -0.7447   0.0000   0.0000   0.0000   0.4432
   2.750   0.7930   0.02712   0.01877  -0.1500  0.9581  1.0000  -0.8137   0.0000   0.0000   0.0000   0.4364
   3.000   0.8441   0.02716   0.01895  -0.1544  0.9422  1.0000  -0.8951   0.0000   0.0000   0.0000   0.4299
   3.250   0.8912   0.02699   0.01892  -0.1578  0.9241  1.0000  -0.9897   0.0000   0.0000   0.0000   0.4238
   3.500   0.9406   0.02653   0.01866  -0.1611  0.9064  1.0000  -1.1130   0.0000   0.0000   0.0000   0.4177
   3.750   0.9960   0.02556   0.01801  -0.1648  0.8892  1.0000  -1.3701   0.0000   0.0000   0.0000   0.4116
   4.000   1.0468   0.02431   0.01707  -0.1670  0.8683  1.0000  -1.6893   0.0000   0.0000   0.0000   0.4055
   4.250   1.1007   0.02248   0.01568  -0.1689  0.8460  1.0000  -2.0419   0.0000   0.0000   0.0000   0.3991
   4.500   1.1514   0.02072   0.01433  -0.1699  0.8154  1.0000  -2.3934   0.0000   0.0000   0.0000   0.3930
   4.750   1.2070   0.01874   0.01266  -0.1708  0.7518  1.0000  -2.7807   0.0000   0.0000   0.0000   0.3866
   5.000   1.2523   0.01826   0.01171  -0.1698  0.5955  1.0000  -3.1242   0.0000   0.0000   0.0000   0.3803
   5.250   1.2665   0.01979   0.01232  -0.1657  0.4350  1.0000  -3.3226   0.0000   0.0000   0.0000   0.3752
   5.500   1.2738   0.02196   0.01358  -0.1615  0.2814  1.0000  -3.4927   0.0000   0.0000   0.0000   0.3709
   5.750   1.2756   0.02611   0.01623  -0.1569  0.1153  1.0000  -3.5118   0.0000   0.0000   0.0000   0.3668
   6.000   1.2886   0.02904   0.01888  -0.1535  0.0854  1.0000  -3.5675   0.0000   0.0000   0.0000   0.3626
   6.250   1.3091   0.03140   0.02126  -0.1514  0.0712  1.0000  -3.6948   0.0000   0.0000   0.0000   0.3589
   6.500   1.3351   0.03407   0.02395  -0.1503  0.0625  1.0000  -4.0074   0.0000   0.0000   0.0000   0.3555
   6.750   1.3676   0.03729   0.02729  -0.1501  0.0584  1.0000  -4.3554   0.0000   0.0000   0.0000   0.3523
   7.000   1.4016   0.04170   0.03192  -0.1502  0.0565  1.0000  -4.6694   0.0000   0.0000   0.0000   0.3494
   7.250   1.4273   0.04592   0.03670  -0.1486  0.0562  1.0000  -4.8807   0.0000   0.0000   0.0000   0.3461
   7.500   1.4480   0.05081   0.04225  -0.1466  0.0566  1.0000  -5.0362   0.0000   0.0000   0.0000   0.3429
   7.750   1.4622   0.05581   0.04780  -0.1439  0.0568  1.0000  -5.1493   0.0000   0.0000   0.0000   0.3398
   8.000   1.4664   0.05995   0.05267  -0.1399  0.0562  1.0000  -5.1926   0.0000   0.0000   0.0000   0.3365
   8.250   1.4663   0.06456   0.05792  -0.1358  0.0559  1.0000  -5.2050   0.0000   0.0000   0.0000   0.3335
   8.500   1.4720   0.07059   0.06424  -0.1333  0.0566  1.0000  -5.2629   0.0000   0.0000   0.0000   0.3312
   8.750   1.4443   0.07497   0.06969  -0.1264  0.0602  1.0000  -4.9621   0.0000   0.0000   0.0000   0.3280
   9.000   1.4271   0.08053   0.07566  -0.1225  0.0626  1.0000  -4.8480   0.0000   0.0000   0.0000   0.3261
   9.250   1.4123   0.08565   0.08102  -0.1193  0.0644  1.0000  -4.7984   0.0000   0.0000   0.0000   0.3245
   9.500   1.4020   0.09089   0.08647  -0.1166  0.0678  1.0000  -4.7535   0.0000   0.0000   0.0000   0.3229
   9.750   1.3672   0.09549   0.09135  -0.1138  0.0686  1.0000  -4.5856   0.0000   0.0000   0.0000   0.3227
  10.000   1.3304   0.10197   0.09807  -0.1142  0.0704  1.0000  -4.3594   0.0000   0.0000   0.0000   0.3251
  10.250   1.3052   0.10958   0.10581  -0.1169  0.0738  1.0000  -4.1846   0.0000   0.0000   0.0000   0.3286
  10.500   1.3051   0.11584   0.11209  -0.1174  0.0760  1.0000  -4.2166   0.0000   0.0000   0.0000   0.3287


