xflr5 v6.61

 Calculated polar for: E63_15_00

 1 1 Reynolds number fixed          Mach number fixed         

 xtrf =   1.000 (top)        1.000 (bottom)
 Mach =   0.200     Re =     0.090 e 6     Ncrit =   9.000

  alpha     CL        CD       CDp       Cm    Top Xtr Bot Xtr   Cpmin    Chinge    XCp    
 ------- -------- --------- --------- -------- ------- ------- -------- --------- ---------
 -20.000  -0.4803   0.24318   0.23637  -0.0097  1.0000  0.0654  -1.3923   0.0000   0.0000   0.0000   0.1947
 -19.500  -0.4684   0.23807   0.23132  -0.0126  1.0000  0.0663  -1.4233   0.0000   0.0000   0.0000   0.1886
 -19.000  -0.4470   0.23068   0.22396  -0.0130  1.0000  0.0682  -1.3459   0.0000   0.0000   0.0000   0.1863
 -18.500  -0.4310   0.22545   0.21877  -0.0148  1.0000  0.0706  -1.3277   0.0000   0.0000   0.0000   0.1816
 -18.000  -0.4172   0.22040   0.21373  -0.0169  1.0000  0.0735  -1.3345   0.0000   0.0000   0.0000   0.1757
 -17.500  -0.4122   0.21774   0.21113  -0.0207  1.0000  0.0755  -1.4161   0.0000   0.0000   0.0000   0.1671
 -17.000  -0.3998   0.21152   0.20497  -0.0225  1.0000  0.0762  -1.4262   0.0000   0.0000   0.0000   0.1613
 -16.500  -0.3778   0.20405   0.19754  -0.0223  1.0000  0.0781  -1.3428   0.0000   0.0000   0.0000   0.1583
 -16.000  -0.3628   0.19871   0.19226  -0.0232  1.0000  0.0809  -1.3135   0.0000   0.0000   0.0000   0.1536
 -15.500  -0.3521   0.19371   0.18731  -0.0249  1.0000  0.0846  -1.3232   0.0000   0.0000   0.0000   0.1474
 -15.000  -0.3608   0.19229   0.18598  -0.0289  1.0000  0.0864  -1.4566   0.0000   0.0000   0.0000   0.1399
 -14.500  -0.3316   0.18244   0.17618  -0.0272  1.0000  0.0884  -1.3366   0.0000   0.0000   0.0000   0.1368
 -14.000  -0.3179   0.17704   0.17082  -0.0274  1.0000  0.0925  -1.3047   0.0000   0.0000   0.0000   0.1331
 -13.500  -0.3256   0.17396   0.16783  -0.0304  1.0000  0.0969  -1.4176   0.0000   0.0000   0.0000   0.1278
 -13.000  -0.3036   0.16582   0.15975  -0.0288  1.0000  0.0999  -1.3751   0.0000   0.0000   0.0000   0.1254
 -12.500  -0.3058   0.16163   0.15564  -0.0302  1.0000  0.1072  -1.4793   0.0000   0.0000   0.0000   0.1231
 -12.000  -0.2894   0.15468   0.14876  -0.0287  1.0000  0.1127  -1.4731   0.0000   0.0000   0.0000   0.1225
 -11.500  -0.3031   0.15094   0.14511  -0.0305  1.0000  0.1191  -1.6050   0.0000   0.0000   0.0000   0.1235
 -11.000  -0.2812   0.14495   0.13916  -0.0280  1.0000  0.1270  -1.5111   0.0000   0.0000   0.0000   0.1242
 -10.500  -0.2792   0.14012   0.13441  -0.0274  1.0000  0.1322  -1.5098   0.0000   0.0000   0.0000   0.1271
 -10.000  -0.2868   0.13698   0.13137  -0.0270  1.0000  0.1397  -1.5338   0.0000   0.0000   0.0000   0.1331
  -9.500  -0.2753   0.13138   0.12586  -0.0247  1.0000  0.1434  -1.4670   0.0000   0.0000   0.0000   0.1380
  -9.250  -0.2727   0.12928   0.12381  -0.0236  1.0000  0.1460  -1.4426   0.0000   0.0000   0.0000   0.1417
  -9.000  -0.2774   0.12755   0.12213  -0.0231  1.0000  0.1490  -1.4496   0.0000   0.0000   0.0000   0.1463
  -8.750  -0.3088   0.12764   0.12232  -0.0239  1.0000  0.1511  -1.5614   0.0000   0.0000   0.0000   0.1546
  -8.500  -0.2966   0.12396   0.11868  -0.0222  1.0000  0.1521  -1.4996   0.0000   0.0000   0.0000   0.1572
  -8.250  -0.2859   0.12126   0.11599  -0.0202  1.0000  0.1538  -1.4366   0.0000   0.0000   0.0000   0.1613
  -8.000  -0.2842   0.11934   0.11412  -0.0186  1.0000  0.1561  -1.4065   0.0000   0.0000   0.0000   0.1669
  -7.750  -0.2899   0.11774   0.11258  -0.0175  1.0000  0.1592  -1.4052   0.0000   0.0000   0.0000   0.1733
  -7.500  -0.3241   0.11760   0.11255  -0.0175  1.0000  0.1619  -1.5084   0.0000   0.0000   0.0000   0.1817
  -7.250  -0.3243   0.11497   0.10999  -0.0159  1.0000  0.1629  -1.4859   0.0000   0.0000   0.0000   0.1871
  -7.000  -0.3128   0.11246   0.10751  -0.0137  1.0000  0.1646  -1.4154   0.0000   0.0000   0.0000   0.1927
  -6.750  -0.3132   0.11078   0.10589  -0.0118  1.0000  0.1668  -1.3855   0.0000   0.0000   0.0000   0.1994
  -6.500  -0.3220   0.10940   0.10458  -0.0101  1.0000  0.1696  -1.3849   0.0000   0.0000   0.0000   0.2062
  -6.250  -0.3557   0.10897   0.10426  -0.0089  1.0000  0.1725  -1.4662   0.0000   0.0000   0.0000   0.2142
  -6.000  -0.4021   0.10881   0.10422  -0.0072  1.0000  0.1733  -1.5823   0.0000   0.0000   0.0000   0.2227
  -5.750  -0.3615   0.10513   0.10055  -0.0048  1.0000  0.1758  -1.4165   0.0000   0.0000   0.0000   0.2271
  -5.500  -0.3515   0.10265   0.09806  -0.0117  0.9898  0.1834  -1.4165   0.0000   0.0000   0.0000   0.2071
  -5.250  -0.3225   0.09886   0.09427  -0.0154  0.9817  0.1868  -1.3649   0.0000   0.0000   0.0000   0.1921
  -4.500  -0.2634   0.04920   0.04306  -0.0886  0.9538  0.1299  -2.3200   0.0000   0.0000   0.0000  -0.1015
  -4.250  -0.2309   0.05089   0.04507  -0.0870  0.9434  0.1331  -2.1576   0.0000   0.0000   0.0000  -0.1425
  -4.000  -0.1734   0.04247   0.03565  -0.1011  0.9376  0.1419  -2.2211   0.0000   0.0000   0.0000  -0.3542
  -3.750  -0.1258   0.04076   0.03365  -0.1062  0.9297  0.1524  -2.1279   0.0000   0.0000   0.0000  -0.6208
  -3.500  -0.0815   0.03991   0.03268  -0.1097  0.9209  0.1633  -2.0151   0.0000   0.0000   0.0000  -1.1336
  -3.250  -0.0415   0.03936   0.03207  -0.1121  0.9109  0.1746  -1.9011   0.0000   0.0000   0.0000  -2.5218
  -3.000   0.0026   0.03776   0.03011  -0.1159  0.9014  0.1846  -1.8307   0.0000   0.0000   0.0000  45.0254
  -2.750   0.0426   0.03700   0.02937  -0.1179  0.8914  0.1929  -1.7366   0.0000   0.0000   0.0000   3.0713
  -2.500   0.0841   0.03608   0.02836  -0.1203  0.8815  0.2027  -1.6450   0.0000   0.0000   0.0000   1.7043
  -2.250   0.1268   0.03493   0.02707  -0.1228  0.8717  0.2113  -1.5576   0.0000   0.0000   0.0000   1.2329
  -2.000   0.1698   0.03388   0.02586  -0.1252  0.8620  0.2210  -1.4668   0.0000   0.0000   0.0000   0.9966
  -1.750   0.2123   0.03298   0.02486  -0.1273  0.8523  0.2322  -1.3713   0.0000   0.0000   0.0000   0.8555
  -1.500   0.2655   0.03168   0.02347  -0.1309  0.8463  0.2440  -1.2627   0.0000   0.0000   0.0000   0.7464
  -1.250   0.3066   0.03077   0.02251  -0.1324  0.8360  0.2562  -1.1693   0.0000   0.0000   0.0000   0.6839
  -1.000   0.3485   0.02979   0.02147  -0.1340  0.8259  0.2696  -1.0765   0.0000   0.0000   0.0000   0.6353
  -0.750   0.3911   0.02871   0.02032  -0.1355  0.8159  0.2834  -0.9842   0.0000   0.0000   0.0000   0.5964
  -0.500   0.4336   0.02763   0.01934  -0.1368  0.8061  0.2993  -0.8886   0.0000   0.0000   0.0000   0.5645
  -0.250   0.4786   0.02650   0.01825  -0.1384  0.7962  0.3194  -0.9200   0.0000   0.0000   0.0000   0.5376
   0.000   0.5259   0.02530   0.01709  -0.1404  0.7862  0.3410  -0.9711   0.0000   0.0000   0.0000   0.5147
   0.250   0.5758   0.02409   0.01593  -0.1428  0.7754  0.3642  -1.0258   0.0000   0.0000   0.0000   0.4953
   0.500   0.6281   0.02299   0.01486  -0.1458  0.7634  0.3928  -1.0829   0.0000   0.0000   0.0000   0.4789
   0.750   0.6848   0.02195   0.01390  -0.1496  0.7501  0.4263  -1.1470   0.0000   0.0000   0.0000   0.4648
   1.000   0.7256   0.02140   0.01344  -0.1508  0.7320  0.4608  -1.2006   0.0000   0.0000   0.0000   0.4537
   1.250   0.7701   0.02084   0.01296  -0.1525  0.7139  0.5044  -1.2582   0.0000   0.0000   0.0000   0.4437
   1.500   0.8111   0.02041   0.01260  -0.1537  0.6946  0.5535  -1.3133   0.0000   0.0000   0.0000   0.4347
   1.750   0.8422   0.02022   0.01248  -0.1531  0.6737  0.6057  -1.3596   0.0000   0.0000   0.0000   0.4266
   2.000   0.8697   0.02009   0.01245  -0.1519  0.6529  0.6671  -1.4059   0.0000   0.0000   0.0000   0.4191
   2.250   0.8916   0.01994   0.01245  -0.1494  0.6330  0.7423  -1.4494   0.0000   0.0000   0.0000   0.4116
   2.500   0.9065   0.01953   0.01226  -0.1451  0.6152  0.8753  -1.4868   0.0000   0.0000   0.0000   0.4038
   2.750   0.9452   0.01968   0.01211  -0.1469  0.5935  1.0000  -1.5461   0.0000   0.0000   0.0000   0.3988
   3.000   0.9773   0.02007   0.01218  -0.1473  0.5738  1.0000  -1.6000   0.0000   0.0000   0.0000   0.3937
   3.250   1.0033   0.02051   0.01240  -0.1465  0.5544  1.0000  -1.6479   0.0000   0.0000   0.0000   0.3887
   3.500   1.0288   0.02098   0.01267  -0.1456  0.5360  1.0000  -1.6956   0.0000   0.0000   0.0000   0.3838
   3.750   1.0575   0.02145   0.01288  -0.1452  0.5190  1.0000  -1.7473   0.0000   0.0000   0.0000   0.3793
   4.000   1.0801   0.02198   0.01328  -0.1438  0.5020  1.0000  -1.7921   0.0000   0.0000   0.0000   0.3747
   4.250   1.1082   0.02250   0.01358  -0.1434  0.4865  1.0000  -1.8436   0.0000   0.0000   0.0000   0.3706
   4.500   1.1292   0.02309   0.01407  -0.1418  0.4708  1.0000  -1.8868   0.0000   0.0000   0.0000   0.3664
   4.750   1.1540   0.02365   0.01449  -0.1408  0.4563  1.0000  -1.9353   0.0000   0.0000   0.0000   0.3625
   5.000   1.1806   0.02424   0.01487  -0.1401  0.4428  1.0000  -1.9937   0.0000   0.0000   0.0000   0.3588
   5.250   1.2013   0.02488   0.01545  -0.1385  0.4293  1.0000  -2.0442   0.0000   0.0000   0.0000   0.3550
   5.500   1.2238   0.02554   0.01606  -0.1372  0.4166  1.0000  -2.0972   0.0000   0.0000   0.0000   0.3515
   5.750   1.2468   0.02622   0.01665  -0.1360  0.4047  1.0000  -2.1510   0.0000   0.0000   0.0000   0.3481
   6.000   1.2698   0.02693   0.01727  -0.1348  0.3934  1.0000  -2.2049   0.0000   0.0000   0.0000   0.3448
   6.250   1.2921   0.02764   0.01791  -0.1335  0.3824  1.0000  -2.2583   0.0000   0.0000   0.0000   0.3416
   6.500   1.3136   0.02836   0.01856  -0.1321  0.3717  1.0000  -2.3111   0.0000   0.0000   0.0000   0.3384
   6.750   1.3350   0.02910   0.01923  -0.1306  0.3615  1.0000  -2.3638   0.0000   0.0000   0.0000   0.3354
   7.000   1.3572   0.02987   0.01993  -0.1294  0.3521  1.0000  -2.4198   0.0000   0.0000   0.0000   0.3325
   7.250   1.3822   0.03065   0.02068  -0.1286  0.3433  1.0000  -2.4825   0.0000   0.0000   0.0000   0.3298
   7.500   1.4026   0.03152   0.02154  -0.1271  0.3348  1.0000  -2.5380   0.0000   0.0000   0.0000   0.3270
   7.750   1.4194   0.03250   0.02259  -0.1251  0.3269  1.0000  -2.5873   0.0000   0.0000   0.0000   0.3241
   8.000   1.4416   0.03346   0.02351  -0.1240  0.3196  1.0000  -2.6453   0.0000   0.0000   0.0000   0.3216
   8.250   1.4673   0.03433   0.02428  -0.1234  0.3122  1.0000  -2.7123   0.0000   0.0000   0.0000   0.3193
   8.500   1.4771   0.03544   0.02556  -0.1203  0.3051  1.0000  -2.7559   0.0000   0.0000   0.0000   0.3163
   8.750   1.4991   0.03642   0.02648  -0.1192  0.2985  1.0000  -2.8207   0.0000   0.0000   0.0000   0.3139
   9.000   1.5159   0.03742   0.02751  -0.1173  0.2918  1.0000  -2.8771   0.0000   0.0000   0.0000   0.3114
   9.250   1.5274   0.03864   0.02884  -0.1147  0.2858  1.0000  -2.9238   0.0000   0.0000   0.0000   0.3087
   9.500   1.5532   0.03954   0.02964  -0.1142  0.2797  1.0000  -2.9963   0.0000   0.0000   0.0000   0.3067
   9.750   1.5533   0.04097   0.03129  -0.1099  0.2745  1.0000  -3.0233   0.0000   0.0000   0.0000   0.3035
  10.000   1.5800   0.04193   0.03222  -0.1096  0.2689  1.0000  -3.0977   0.0000   0.0000   0.0000   0.3017
  10.250   1.5764   0.04360   0.03412  -0.1050  0.2646  1.0000  -3.1167   0.0000   0.0000   0.0000   0.2986
  10.500   1.5861   0.04499   0.03561  -0.1024  0.2601  1.0000  -3.1598   0.0000   0.0000   0.0000   0.2961
  10.750   1.6033   0.04639   0.03701  -0.1010  0.2557  1.0000  -3.2157   0.0000   0.0000   0.0000   0.2941
  11.000   1.5885   0.04848   0.03939  -0.0954  0.2521  1.0000  -3.2185   0.0000   0.0000   0.0000   0.2908
  11.250   1.6171   0.04940   0.04021  -0.0954  0.2473  1.0000  -3.3059   0.0000   0.0000   0.0000   0.2892
  11.500   1.6006   0.05179   0.04286  -0.0902  0.2441  1.0000  -3.3046   0.0000   0.0000   0.0000   0.2862
  11.750   1.5774   0.05461   0.04596  -0.0849  0.2410  1.0000  -3.2918   0.0000   0.0000   0.0000   0.2832
  12.000   1.6039   0.05554   0.04682  -0.0845  0.2367  1.0000  -3.3925   0.0000   0.0000   0.0000   0.2816
  12.250   1.5887   0.05849   0.04997  -0.0807  0.2342  1.0000  -3.3985   0.0000   0.0000   0.0000   0.2793
  12.500   1.5313   0.06401   0.05592  -0.0749  0.2326  1.0000  -3.3054   0.0000   0.0000   0.0000   0.2769
  12.750   1.4290   0.07484   0.06727  -0.0711  0.2318  1.0000  -3.0947   0.0000   0.0000   0.0000   0.2773
  13.000   0.9802   0.15854   0.15183  -0.1121  0.2462  1.0000  -1.6765   0.0000   0.0000   0.0000   0.3447
  14.250   0.7601   0.18089   0.17531  -0.1109  0.2570  1.0000  -1.0962   0.0000   0.0000   0.0000   0.3787
  14.500   0.7436   0.18202   0.17649  -0.1131  0.2493  1.0000  -1.0449   0.0000   0.0000   0.0000   0.3847
  14.750   0.7719   0.18592   0.18044  -0.1122  0.2464  1.0000  -1.1209   0.0000   0.0000   0.0000   0.3774
  15.000   0.7512   0.18703   0.18161  -0.1149  0.2392  1.0000  -1.0518   0.0000   0.0000   0.0000   0.3850
  15.500   0.9788   0.20199   0.19549  -0.1357  0.2408  1.0000  -1.5264   0.0000   0.0000   0.0000   0.3660
  16.000   1.0142   0.20905   0.20257  -0.1360  0.2352  1.0000  -1.6146   0.0000   0.0000   0.0000   0.3603
  16.500   1.0286   0.21437   0.20793  -0.1387  0.2251  1.0000  -1.6334   0.0000   0.0000   0.0000   0.3601
  17.000   1.0366   0.21947   0.21305  -0.1425  0.2149  1.0000  -1.6227   0.0000   0.0000   0.0000   0.3617
  17.500   1.0425   0.22515   0.21875  -0.1471  0.2066  1.0000  -1.5902   0.0000   0.0000   0.0000   0.3645
  18.000   1.0570   0.23114   0.22477  -0.1504  0.1997  1.0000  -1.5855   0.0000   0.0000   0.0000   0.3647
  19.000   0.8200   0.23099   0.22602  -0.1314  0.1738  1.0000  -1.0030   0.0000   0.0000   0.0000   0.3863
  19.500   0.8330   0.23754   0.23266  -0.1331  0.1701  1.0000  -1.0579   0.0000   0.0000   0.0000   0.3849
  20.000   0.8360   0.24295   0.23815  -0.1361  0.1627  1.0000  -1.0689   0.0000   0.0000   0.0000   0.3871


