xflr5 v6.61

 Calculated polar for: E63_13_00

 1 1 Reynolds number fixed          Mach number fixed         

 xtrf =   1.000 (top)        1.000 (bottom)
 Mach =   0.200     Re =     0.060 e 6     Ncrit =   7.000

  alpha     CL        CD       CDp       Cm    Top Xtr Bot Xtr   Cpmin    Chinge    XCp    
 ------- -------- --------- --------- -------- ------- ------- -------- --------- ---------
 -27.000  -0.7197   0.31626   0.30784   0.0378  1.0000  0.0467  -1.5429   0.0000   0.0000   0.0000   0.2654
 -26.500  -0.7039   0.30992   0.30150   0.0348  1.0000  0.0478  -1.4990   0.0000   0.0000   0.0000   0.2632
 -26.000  -0.6887   0.30482   0.29640   0.0315  1.0000  0.0490  -1.4715   0.0000   0.0000   0.0000   0.2603
 -25.500  -0.6736   0.29992   0.29150   0.0281  1.0000  0.0504  -1.4513   0.0000   0.0000   0.0000   0.2570
 -25.000  -0.6585   0.29507   0.28665   0.0246  1.0000  0.0521  -1.4356   0.0000   0.0000   0.0000   0.2534
 -24.500  -0.6438   0.29053   0.28211   0.0209  1.0000  0.0542  -1.4300   0.0000   0.0000   0.0000   0.2493
 -24.000  -0.6305   0.28743   0.27900   0.0167  1.0000  0.0554  -1.4499   0.0000   0.0000   0.0000   0.2441
 -23.500  -0.6194   0.28592   0.27751   0.0123  1.0000  0.0558  -1.4806   0.0000   0.0000   0.0000   0.2383
 -23.000  -0.6013   0.27718   0.26882   0.0100  1.0000  0.0564  -1.4461   0.0000   0.0000   0.0000   0.2356
 -22.500  -0.5834   0.27011   0.26176   0.0080  1.0000  0.0577  -1.4005   0.0000   0.0000   0.0000   0.2331
 -22.000  -0.5672   0.26475   0.25642   0.0054  1.0000  0.0594  -1.3815   0.0000   0.0000   0.0000   0.2295
 -21.500  -0.5515   0.25964   0.25133   0.0026  1.0000  0.0614  -1.3745   0.0000   0.0000   0.0000   0.2253
 -21.000  -0.5365   0.25471   0.24639  -0.0003  1.0000  0.0636  -1.3788   0.0000   0.0000   0.0000   0.2205
 -20.500  -0.5233   0.25068   0.24240  -0.0037  1.0000  0.0651  -1.4077   0.0000   0.0000   0.0000   0.2145
 -20.000  -0.5136   0.24837   0.24013  -0.0076  1.0000  0.0657  -1.4613   0.0000   0.0000   0.0000   0.2077
 -19.500  -0.4940   0.23967   0.23148  -0.0088  1.0000  0.0668  -1.4087   0.0000   0.0000   0.0000   0.2047
 -19.000  -0.4763   0.23345   0.22530  -0.0103  1.0000  0.0688  -1.3622   0.0000   0.0000   0.0000   0.2011
 -18.500  -0.4610   0.22820   0.22009  -0.0124  1.0000  0.0717  -1.3430   0.0000   0.0000   0.0000   0.1963
 -18.000  -0.4503   0.22459   0.21654  -0.0155  1.0000  0.0751  -1.3735   0.0000   0.0000   0.0000   0.1894
 -17.500  -0.4383   0.21938   0.21137  -0.0179  1.0000  0.0764  -1.3825   0.0000   0.0000   0.0000   0.1835
 -17.000  -0.4188   0.21225   0.20428  -0.0184  1.0000  0.0792  -1.3111   0.0000   0.0000   0.0000   0.1804
 -16.500  -0.4045   0.20694   0.19902  -0.0200  1.0000  0.0824  -1.2886   0.0000   0.0000   0.0000   0.1753
 -16.000  -0.3945   0.20258   0.19472  -0.0223  1.0000  0.0855  -1.3198   0.0000   0.0000   0.0000   0.1688
 -15.500  -0.3927   0.20037   0.19260  -0.0254  1.0000  0.0864  -1.4049   0.0000   0.0000   0.0000   0.1616
 -15.000  -0.3686   0.19091   0.18320  -0.0248  1.0000  0.0885  -1.3283   0.0000   0.0000   0.0000   0.1586
 -14.500  -0.3543   0.18530   0.17765  -0.0255  1.0000  0.0919  -1.3094   0.0000   0.0000   0.0000   0.1543
 -14.000  -0.3460   0.18063   0.17305  -0.0270  1.0000  0.0957  -1.3344   0.0000   0.0000   0.0000   0.1487
 -13.500  -0.3485   0.17788   0.17037  -0.0295  1.0000  0.0971  -1.4194   0.0000   0.0000   0.0000   0.1433
 -13.000  -0.3254   0.16923   0.16179  -0.0284  1.0000  0.0995  -1.3418   0.0000   0.0000   0.0000   0.1402
 -12.500  -0.3143   0.16381   0.15644  -0.0286  1.0000  0.1037  -1.3277   0.0000   0.0000   0.0000   0.1370
 -12.000  -0.3164   0.16004   0.15278  -0.0302  1.0000  0.1073  -1.3925   0.0000   0.0000   0.0000   0.1337
 -11.500  -0.3049   0.15336   0.14620  -0.0298  1.0000  0.1093  -1.3772   0.0000   0.0000   0.0000   0.1317
 -11.000  -0.2938   0.14774   0.14067  -0.0290  1.0000  0.1144  -1.3515   0.0000   0.0000   0.0000   0.1311
 -10.500  -0.3042   0.14421   0.13727  -0.0303  1.0000  0.1184  -1.4406   0.0000   0.0000   0.0000   0.1320
 -10.000  -0.2877   0.13710   0.13025  -0.0284  1.0000  0.1226  -1.3910   0.0000   0.0000   0.0000   0.1329
  -9.500  -0.2977   0.13318   0.12648  -0.0286  1.0000  0.1289  -1.4751   0.0000   0.0000   0.0000   0.1373
  -9.000  -0.2942   0.12790   0.12133  -0.0268  1.0000  0.1392  -1.5042   0.0000   0.0000   0.0000   0.1429
  -8.500  -0.3055   0.12426   0.11785  -0.0255  1.0000  0.1509  -1.5743   0.0000   0.0000   0.0000   0.1523
  -8.000  -0.2945   0.11914   0.11280  -0.0219  1.0000  0.1709  -1.5351   0.0000   0.0000   0.0000   0.1618
  -7.500  -0.3001   0.11461   0.10840  -0.0196  1.0000  0.1766  -1.5596   0.0000   0.0000   0.0000   0.1723
  -7.000  -0.3214   0.11182   0.10578  -0.0170  1.0000  0.1834  -1.6139   0.0000   0.0000   0.0000   0.1863
  -6.500  -0.3274   0.10725   0.10135  -0.0136  1.0000  0.1867  -1.6104   0.0000   0.0000   0.0000   0.1987
  -6.000  -0.3452   0.10417   0.09843  -0.0095  1.0000  0.1925  -1.6236   0.0000   0.0000   0.0000   0.2141
  -4.500  -0.3598   0.07497   0.06919  -0.0377  0.9928  0.1289  -2.0970   0.0000   0.0000   0.0000   0.1379
  -4.000  -0.2745   0.06134   0.05512  -0.0616  0.9791  0.1259  -2.0677   0.0000   0.0000   0.0000   0.0164
  -3.500  -0.1442   0.04326   0.03535  -0.0957  0.9702  0.1307  -2.0580   0.0000   0.0000   0.0000  -0.4309
  -3.000  -0.0547   0.04013   0.03166  -0.1050  0.9534  0.1489  -1.8511   0.0000   0.0000   0.0000  -1.7083
  -2.500   0.0343   0.03784   0.02883  -0.1130  0.9356  0.1740  -1.6827   0.0000   0.0000   0.0000   3.5947
  -2.000   0.1179   0.03649   0.02732  -0.1186  0.9164  0.2001  -1.4874   0.0000   0.0000   0.0000   1.2673
  -1.500   0.2027   0.03513   0.02568  -0.1239  0.8963  0.2302  -1.3188   0.0000   0.0000   0.0000   0.8662
  -1.000   0.2829   0.03399   0.02445  -0.1279  0.8741  0.2628  -1.1478   0.0000   0.0000   0.0000   0.7037
  -0.500   0.3621   0.03286   0.02334  -0.1311  0.8511  0.3000  -0.9739   0.0000   0.0000   0.0000   0.6119
   0.000   0.4423   0.03167   0.02222  -0.1339  0.8280  0.3492  -0.8019   0.0000   0.0000   0.0000   0.5514
   0.500   0.5240   0.03021   0.02093  -0.1363  0.8052  0.4108  -0.8899   0.0000   0.0000   0.0000   0.5078
   1.000   0.6084   0.02835   0.01938  -0.1384  0.7823  0.5030  -0.9850   0.0000   0.0000   0.0000   0.4743
   1.500   0.6809   0.02661   0.01818  -0.1382  0.7542  0.6387  -1.0816   0.0000   0.0000   0.0000   0.4490
   2.000   0.7462   0.02427   0.01631  -0.1356  0.7256  1.0000  -1.1819   0.0000   0.0000   0.0000   0.4271
   2.500   0.8351   0.02368   0.01520  -0.1394  0.6885  1.0000  -1.3081   0.0000   0.0000   0.0000   0.4117
   3.000   0.9148   0.02353   0.01462  -0.1416  0.6469  1.0000  -1.4285   0.0000   0.0000   0.0000   0.3989
   3.500   0.9834   0.02387   0.01456  -0.1422  0.6030  1.0000  -1.5396   0.0000   0.0000   0.0000   0.3880
   4.000   1.0440   0.02459   0.01491  -0.1416  0.5602  1.0000  -1.6434   0.0000   0.0000   0.0000   0.3784
   4.500   1.1003   0.02555   0.01553  -0.1405  0.5203  1.0000  -1.7504   0.0000   0.0000   0.0000   0.3697
   5.000   1.1500   0.02677   0.01649  -0.1385  0.4834  1.0000  -1.8589   0.0000   0.0000   0.0000   0.3618
   5.500   1.1984   0.02812   0.01766  -0.1363  0.4499  1.0000  -1.9666   0.0000   0.0000   0.0000   0.3544
   6.000   1.2452   0.02954   0.01884  -0.1340  0.4191  1.0000  -2.0792   0.0000   0.0000   0.0000   0.3476
   6.500   1.2879   0.03111   0.02029  -0.1312  0.3909  1.0000  -2.1905   0.0000   0.0000   0.0000   0.3411
   7.000   1.3335   0.03277   0.02177  -0.1289  0.3664  1.0000  -2.3132   0.0000   0.0000   0.0000   0.3351
   7.500   1.3757   0.03465   0.02370  -0.1262  0.3446  1.0000  -2.4348   0.0000   0.0000   0.0000   0.3295
   8.000   1.4125   0.03689   0.02603  -0.1229  0.3255  1.0000  -2.5461   0.0000   0.0000   0.0000   0.3240
   8.500   1.4495   0.03923   0.02844  -0.1197  0.3082  1.0000  -2.6587   0.0000   0.0000   0.0000   0.3188
   9.000   1.4835   0.04157   0.03084  -0.1162  0.2917  1.0000  -2.7762   0.0000   0.0000   0.0000   0.3138
   9.500   1.5120   0.04419   0.03357  -0.1120  0.2772  1.0000  -2.9193   0.0000   0.0000   0.0000   0.3088
  10.000   1.5278   0.04731   0.03695  -0.1065  0.2646  1.0000  -3.0351   0.0000   0.0000   0.0000   0.3035
  10.500   1.5410   0.05082   0.04079  -0.1010  0.2537  1.0000  -3.1446   0.0000   0.0000   0.0000   0.2986
  11.000   1.5470   0.05468   0.04491  -0.0953  0.2436  1.0000  -3.2394   0.0000   0.0000   0.0000   0.2938
  11.500   1.5537   0.05877   0.04922  -0.0902  0.2345  1.0000  -3.3352   0.0000   0.0000   0.0000   0.2895
  12.000   1.4932   0.06731   0.05838  -0.0822  0.2285  1.0000  -3.2640   0.0000   0.0000   0.0000   0.2856
  12.500   1.4329   0.07822   0.06973  -0.0788  0.2229  1.0000  -3.1778   0.0000   0.0000   0.0000   0.2847
  13.500   1.1089   0.14931   0.14143  -0.1118  0.2036  1.0000  -2.1366   0.0000   0.0000   0.0000   0.3307
  14.000   1.0767   0.16576   0.15795  -0.1214  0.1990  1.0000  -1.9707   0.0000   0.0000   0.0000   0.3424
  14.500   1.1001   0.17103   0.16327  -0.1222  0.1920  1.0000  -2.0458   0.0000   0.0000   0.0000   0.3398
  15.000   1.0819   0.18378   0.17610  -0.1306  0.1867  1.0000  -1.9166   0.0000   0.0000   0.0000   0.3490
  15.500   1.0837   0.19339   0.18578  -0.1361  0.1858  1.0000  -1.8599   0.0000   0.0000   0.0000   0.3532
  16.000   1.0951   0.20035   0.19279  -0.1396  0.1784  1.0000  -1.8566   0.0000   0.0000   0.0000   0.3542
  16.500   1.0997   0.20902   0.20152  -0.1451  0.1769  1.0000  -1.7960   0.0000   0.0000   0.0000   0.3579
  18.500   1.1503   0.24387   0.23675  -0.1635  0.1922  1.0000  -1.8660   0.0000   0.0000   0.0000   0.3647
  19.000   1.1494   0.24865   0.24158  -0.1705  0.1884  1.0000  -1.8256   0.0000   0.0000   0.0000   0.3699
  19.500   1.1701   0.25522   0.24823  -0.1731  0.1827  1.0000  -1.9018   0.0000   0.0000   0.0000   0.3684
  20.000   1.1799   0.26115   0.25421  -0.1781  0.1792  1.0000  -1.9075   0.0000   0.0000   0.0000   0.3704


