xflr5 v6.61

 Calculated polar for: E63_10_00

 1 1 Reynolds number fixed          Mach number fixed         

 xtrf =   1.000 (top)        1.000 (bottom)
 Mach =   0.200     Re =     0.060 e 6     Ncrit =   9.000

  alpha     CL        CD       CDp       Cm    Top Xtr Bot Xtr   Cpmin    Chinge    XCp    
 ------- -------- --------- --------- -------- ------- ------- -------- --------- ---------
 -20.000  -0.3656   0.21688   0.20998  -0.0162  1.0000  0.0617  -0.8801   0.0000   0.0000   0.0000   0.1944
 -19.500  -0.3588   0.21359   0.20669  -0.0178  1.0000  0.0643  -0.8916   0.0000   0.0000   0.0000   0.1893
 -19.000  -0.3568   0.21284   0.20594  -0.0199  1.0000  0.0656  -0.9389   0.0000   0.0000   0.0000   0.1831
 -18.500  -0.3465   0.20689   0.19999  -0.0208  1.0000  0.0668  -0.9163   0.0000   0.0000   0.0000   0.1791
 -18.000  -0.3360   0.20191   0.19501  -0.0213  1.0000  0.0693  -0.8801   0.0000   0.0000   0.0000   0.1755
 -17.500  -0.3285   0.19834   0.19145  -0.0223  1.0000  0.0721  -0.8879   0.0000   0.0000   0.0000   0.1710
 -17.000  -0.3243   0.19604   0.18916  -0.0238  1.0000  0.0747  -0.9314   0.0000   0.0000   0.0000   0.1659
 -16.500  -0.3288   0.19746   0.19059  -0.0257  1.0000  0.0757  -1.0218   0.0000   0.0000   0.0000   0.1610
 -16.000  -0.3113   0.18847   0.18164  -0.0253  1.0000  0.0778  -0.9717   0.0000   0.0000   0.0000   0.1577
 -15.500  -0.3034   0.18466   0.17785  -0.0257  1.0000  0.0810  -0.9714   0.0000   0.0000   0.0000   0.1545
 -15.000  -0.2995   0.18199   0.17520  -0.0265  1.0000  0.0845  -1.0012   0.0000   0.0000   0.0000   0.1507
 -14.500  -0.3048   0.18174   0.17493  -0.0281  1.0000  0.0862  -1.0844   0.0000   0.0000   0.0000   0.1472
 -14.000  -0.2908   0.17434   0.16758  -0.0276  1.0000  0.0885  -1.0498   0.0000   0.0000   0.0000   0.1442
 -13.500  -0.2834   0.16977   0.16304  -0.0275  1.0000  0.0924  -1.0435   0.0000   0.0000   0.0000   0.1420
 -13.000  -0.2842   0.16680   0.16010  -0.0284  1.0000  0.0962  -1.0892   0.0000   0.0000   0.0000   0.1395
 -12.500  -0.2796   0.16172   0.15509  -0.0285  1.0000  0.0986  -1.1014   0.0000   0.0000   0.0000   0.1377
 -12.000  -0.2717   0.15665   0.15007  -0.0280  1.0000  0.1050  -1.0823   0.0000   0.0000   0.0000   0.1367
 -11.500  -0.2880   0.15607   0.14958  -0.0296  1.0000  0.1078  -1.1901   0.0000   0.0000   0.0000   0.1378
 -11.000  -0.2634   0.14679   0.14036  -0.0274  1.0000  0.1140  -1.0891   0.0000   0.0000   0.0000   0.1361
 -10.500  -0.2724   0.14406   0.13773  -0.0281  1.0000  0.1183  -1.1527   0.0000   0.0000   0.0000   0.1378
 -10.000  -0.2588   0.13688   0.13063  -0.0265  1.0000  0.1224  -1.1023   0.0000   0.0000   0.0000   0.1387
  -9.750  -0.3169   0.13650   0.12979  -0.0267  1.0000  0.1207  -1.3086   0.0000   0.0000   0.0000   0.1548
  -9.500  -0.2625   0.13292   0.12674  -0.0261  1.0000  0.1285  -1.1260   0.0000   0.0000   0.0000   0.1424
  -9.250  -0.3105   0.13143   0.12482  -0.0259  1.0000  0.1272  -1.2897   0.0000   0.0000   0.0000   0.1563
  -9.000  -0.2584   0.12714   0.12107  -0.0247  1.0000  0.1322  -1.1204   0.0000   0.0000   0.0000   0.1463
  -8.750  -0.3141   0.12717   0.12068  -0.0256  1.0000  0.1307  -1.3196   0.0000   0.0000   0.0000   0.1589
  -8.500  -0.2614   0.12288   0.11693  -0.0235  1.0000  0.1389  -1.1469   0.0000   0.0000   0.0000   0.1528
  -8.250  -0.3065   0.12176   0.11537  -0.0238  1.0000  0.1377  -1.3083   0.0000   0.0000   0.0000   0.1632
  -8.000  -0.2612   0.11754   0.11172  -0.0217  1.0000  0.1431  -1.1599   0.0000   0.0000   0.0000   0.1600
  -7.750  -0.3139   0.11777   0.11156  -0.0227  1.0000  0.1418  -1.3542   0.0000   0.0000   0.0000   0.1694
  -7.500  -0.2702   0.11380   0.10812  -0.0200  1.0000  0.1501  -1.1935   0.0000   0.0000   0.0000   0.1700
  -7.250  -0.3133   0.11323   0.10715  -0.0203  1.0000  0.1492  -1.3540   0.0000   0.0000   0.0000   0.1775
  -7.000  -0.2700   0.10842   0.10288  -0.0174  1.0000  0.1550  -1.1925   0.0000   0.0000   0.0000   0.1801
  -6.750  -0.3223   0.10914   0.10324  -0.0178  1.0000  0.1535  -1.3835   0.0000   0.0000   0.0000   0.1880
  -6.500  -0.2926   0.10584   0.10049  -0.0150  1.0000  0.1616  -1.2514   0.0000   0.0000   0.0000   0.1944
  -6.250  -0.3368   0.10610   0.10038  -0.0142  1.0000  0.1607  -1.4093   0.0000   0.0000   0.0000   0.2021
  -6.000  -0.2906   0.10029   0.09507  -0.0115  1.0000  0.1674  -1.2312   0.0000   0.0000   0.0000   0.2065
  -5.750  -0.3041   0.09907   0.09395  -0.0095  1.0000  0.1711  -1.2569   0.0000   0.0000   0.0000   0.2150
  -5.500  -0.3294   0.09882   0.09382  -0.0083  1.0000  0.1729  -1.3187   0.0000   0.0000   0.0000   0.2216
  -5.250  -0.3229   0.09527   0.09033  -0.0059  1.0000  0.1757  -1.2885   0.0000   0.0000   0.0000   0.2285
  -5.000  -0.3255   0.09310   0.08823  -0.0045  1.0000  0.1802  -1.2863   0.0000   0.0000   0.0000   0.2332
  -4.500  -0.3358   0.08852   0.08380  -0.0039  1.0000  0.1874  -1.3153   0.0000   0.0000   0.0000   0.2358
  -4.250  -0.3389   0.08635   0.08169  -0.0051  1.0000  0.1937  -1.3332   0.0000   0.0000   0.0000   0.2326
  -4.000  -0.3383   0.08342   0.07881  -0.0055  1.0000  0.1973  -1.3402   0.0000   0.0000   0.0000   0.2313
  -3.500  -0.3330   0.07936   0.07437  -0.0149  1.0000  0.2100  -1.4677   0.0000   0.0000   0.0000   0.2021
  -3.250  -0.3185   0.07608   0.07110  -0.0188  1.0000  0.2194  -1.4701   0.0000   0.0000   0.0000   0.1876
  -3.000  -0.2201   0.05939   0.05375  -0.0555  1.0000  0.1391  -1.7983   0.0000   0.0000   0.0000  -0.0070
  -2.750  -0.2835   0.06956   0.06453  -0.0252  1.0000  0.2417  -1.4571   0.0000   0.0000   0.0000   0.1578
  -2.500  -0.1579   0.05297   0.04708  -0.0647  1.0000  0.1701  -1.7297   0.0000   0.0000   0.0000  -0.1661
  -2.250  -0.0856   0.04580   0.03924  -0.0802  1.0000  0.1704  -1.7947   0.0000   0.0000   0.0000  -0.6975
  -2.000  -0.0196   0.04051   0.03315  -0.0919  1.0000  0.1713  -1.7908   0.0000   0.0000   0.0000  -4.4769
  -1.750   0.0297   0.03751   0.02952  -0.0984  1.0000  0.1748  -1.7316   0.0000   0.0000   0.0000   3.5878
  -1.500   0.0654   0.03605   0.02772  -0.1012  1.0000  0.1803  -1.6442   0.0000   0.0000   0.0000   1.8097
  -1.250   0.0987   0.03506   0.02641  -0.1035  1.0000  0.1899  -1.5488   0.0000   0.0000   0.0000   1.3050
  -1.000   0.1283   0.03465   0.02574  -0.1051  1.0000  0.2069  -1.4461   0.0000   0.0000   0.0000   1.0728
  -0.750   0.1526   0.03456   0.02564  -0.1056  1.0000  0.2235  -1.3400   0.0000   0.0000   0.0000   0.9445
  -0.500   0.1926   0.03476   0.02577  -0.1087  0.9954  0.2532  -1.1973   0.0000   0.0000   0.0000   0.8157
  -0.250   0.2504   0.03500   0.02597  -0.1146  0.9825  0.2956  -1.0124   0.0000   0.0000   0.0000   0.7081
   0.000   0.3061   0.03520   0.02624  -0.1200  0.9700  0.3429  -0.8973   0.0000   0.0000   0.0000   0.6416
   0.250   0.3544   0.03519   0.02629  -0.1240  0.9546  0.3939  -0.7987   0.0000   0.0000   0.0000   0.5991
   0.500   0.4065   0.03515   0.02639  -0.1282  0.9413  0.4599  -0.7070   0.0000   0.0000   0.0000   0.5642
   0.750   0.4486   0.03491   0.02644  -0.1306  0.9252  0.5393  -0.6864   0.0000   0.0000   0.0000   0.5396
   1.000   0.4918   0.03421   0.02636  -0.1324  0.9117  0.6830  -0.7292   0.0000   0.0000   0.0000   0.5172
   1.250   0.5217   0.03325   0.02566  -0.1322  0.8937  1.0000  -0.7617   0.0000   0.0000   0.0000   0.5010
   1.500   0.5778   0.03331   0.02531  -0.1369  0.8787  1.0000  -0.8168   0.0000   0.0000   0.0000   0.4842
   1.750   0.6198   0.03333   0.02514  -0.1390  0.8600  1.0000  -0.8627   0.0000   0.0000   0.0000   0.4713
   2.000   0.6661   0.03313   0.02478  -0.1414  0.8428  1.0000  -0.9187   0.0000   0.0000   0.0000   0.4590
   2.250   0.7155   0.03264   0.02417  -0.1439  0.8265  1.0000  -0.9793   0.0000   0.0000   0.0000   0.4475
   2.500   0.7587   0.03217   0.02363  -0.1453  0.8086  1.0000  -1.0362   0.0000   0.0000   0.0000   0.4376
   2.750   0.8122   0.03107   0.02248  -0.1476  0.7939  1.0000  -1.1076   0.0000   0.0000   0.0000   0.4276
   3.000   0.8577   0.03013   0.02151  -0.1487  0.7764  1.0000  -1.1741   0.0000   0.0000   0.0000   0.4189
   3.250   0.9174   0.02851   0.01986  -0.1515  0.7611  1.0000  -1.2595   0.0000   0.0000   0.0000   0.4103
   3.500   0.9703   0.02729   0.01864  -0.1535  0.7410  1.0000  -1.3425   0.0000   0.0000   0.0000   0.4031
   3.750   1.0280   0.02602   0.01732  -0.1562  0.7186  1.0000  -1.4332   0.0000   0.0000   0.0000   0.3965
   4.000   1.0780   0.02522   0.01644  -0.1579  0.6918  1.0000  -1.5189   0.0000   0.0000   0.0000   0.3908
   4.250   1.1239   0.02479   0.01590  -0.1592  0.6624  1.0000  -1.6029   0.0000   0.0000   0.0000   0.3856
   4.500   1.1584   0.02490   0.01588  -0.1589  0.6313  1.0000  -1.6732   0.0000   0.0000   0.0000   0.3809
   4.750   1.1899   0.02523   0.01605  -0.1583  0.6006  1.0000  -1.7453   0.0000   0.0000   0.0000   0.3764
   5.000   1.2200   0.02571   0.01636  -0.1576  0.5710  1.0000  -1.8158   0.0000   0.0000   0.0000   0.3722
   5.250   1.2485   0.02630   0.01682  -0.1567  0.5426  1.0000  -1.8847   0.0000   0.0000   0.0000   0.3681
   5.500   1.2727   0.02707   0.01747  -0.1552  0.5157  1.0000  -1.9471   0.0000   0.0000   0.0000   0.3643
   5.750   1.2974   0.02790   0.01816  -0.1539  0.4905  1.0000  -2.0179   0.0000   0.0000   0.0000   0.3606
   6.000   1.3222   0.02878   0.01892  -0.1527  0.4671  1.0000  -2.1062   0.0000   0.0000   0.0000   0.3571
   6.250   1.3458   0.02974   0.01978  -0.1514  0.4452  1.0000  -2.1927   0.0000   0.0000   0.0000   0.3538
   6.500   1.3681   0.03077   0.02074  -0.1499  0.4246  1.0000  -2.2773   0.0000   0.0000   0.0000   0.3505
   6.750   1.3907   0.03187   0.02179  -0.1485  0.4055  1.0000  -2.3624   0.0000   0.0000   0.0000   0.3473
   7.000   1.4162   0.03293   0.02285  -0.1475  0.3876  1.0000  -2.4550   0.0000   0.0000   0.0000   0.3444
   7.250   1.4344   0.03421   0.02422  -0.1456  0.3708  1.0000  -2.5310   0.0000   0.0000   0.0000   0.3413
   7.500   1.4607   0.03537   0.02525  -0.1448  0.3553  1.0000  -2.6262   0.0000   0.0000   0.0000   0.3386
   7.750   1.4767   0.03682   0.02685  -0.1426  0.3407  1.0000  -2.6972   0.0000   0.0000   0.0000   0.3357
   8.000   1.4963   0.03824   0.02834  -0.1409  0.3270  1.0000  -2.7765   0.0000   0.0000   0.0000   0.3329
   8.250   1.5169   0.03967   0.02980  -0.1394  0.3141  1.0000  -2.8590   0.0000   0.0000   0.0000   0.3303
   8.500   1.5372   0.04118   0.03136  -0.1379  0.3022  1.0000  -2.9742   0.0000   0.0000   0.0000   0.3277
   8.750   1.5556   0.04279   0.03306  -0.1361  0.2909  1.0000  -3.1005   0.0000   0.0000   0.0000   0.3252
   9.000   1.5712   0.04451   0.03491  -0.1340  0.2803  1.0000  -3.2187   0.0000   0.0000   0.0000   0.3226
   9.250   1.5821   0.04656   0.03719  -0.1314  0.2710  1.0000  -3.3197   0.0000   0.0000   0.0000   0.3200
   9.500   1.5915   0.04875   0.03962  -0.1286  0.2624  1.0000  -3.4155   0.0000   0.0000   0.0000   0.3174
   9.750   1.6033   0.05080   0.04191  -0.1262  0.2538  1.0000  -3.5231   0.0000   0.0000   0.0000   0.3149
  10.000   1.6187   0.05266   0.04386  -0.1243  0.2448  1.0000  -3.6456   0.0000   0.0000   0.0000   0.3126
  10.250   1.6286   0.05476   0.04612  -0.1218  0.2366  1.0000  -3.7487   0.0000   0.0000   0.0000   0.3101
  10.500   1.6150   0.05793   0.04971  -0.1167  0.2312  1.0000  -3.7654   0.0000   0.0000   0.0000   0.3073
  10.750   1.6284   0.05988   0.05171  -0.1147  0.2231  1.0000  -3.8841   0.0000   0.0000   0.0000   0.3051
  11.000   1.6015   0.06348   0.05572  -0.1087  0.2194  1.0000  -3.8544   0.0000   0.0000   0.0000   0.3022
  11.500   1.6312   0.06683   0.05910  -0.1051  0.2030  1.0000  -4.1119   0.0000   0.0000   0.0000   0.2979
  11.750   1.5265   0.07570   0.06867  -0.0955  0.2104  1.0000  -3.7783   0.0000   0.0000   0.0000   0.2959
  12.000   1.5464   0.07703   0.07001  -0.0942  0.2022  1.0000  -3.9234   0.0000   0.0000   0.0000   0.2938
  12.250   1.3941   0.09580   0.08926  -0.0948  0.2133  1.0000  -3.3623   0.0000   0.0000   0.0000   0.3007
  17.000   1.1832   0.23637   0.23020  -0.1760  0.2148  1.0000  -2.0031   0.0000   0.0000   0.0000   0.3764
  17.500   1.1931   0.24262   0.23650  -0.1805  0.2012  1.0000  -2.0049   0.0000   0.0000   0.0000   0.3780
  18.000   1.2151   0.25008   0.24412  -0.1823  0.1811  1.0000  -2.0591   0.0000   0.0000   0.0000   0.3757
  18.500   1.2265   0.25691   0.25098  -0.1870  0.1700  1.0000  -2.0209   0.0000   0.0000   0.0000   0.3771
  19.000   1.2451   0.26523   0.25935  -0.1903  0.1599  1.0000  -2.0181   0.0000   0.0000   0.0000   0.3764
  19.500   1.2525   0.26996   0.26410  -0.1964  0.1512  1.0000  -1.9569   0.0000   0.0000   0.0000   0.3794
  20.000   1.2633   0.27646   0.27061  -0.2021  0.1456  1.0000  -1.9086   0.0000   0.0000   0.0000   0.3815


