xflr5 v6.61

 Calculated polar for: E63_8_00

 1 1 Reynolds number fixed          Mach number fixed         

 xtrf =   1.000 (top)        1.000 (bottom)
 Mach =   0.200     Re =     0.125 e 6     Ncrit =   9.000

  alpha     CL        CD       CDp       Cm    Top Xtr Bot Xtr   Cpmin    Chinge    XCp    
 ------- -------- --------- --------- -------- ------- ------- -------- --------- ---------
 -20.000  -0.5850   0.24581   0.24037   0.0075  1.0000  0.0242  -1.3577   0.0000   0.0000   0.0000   0.2492
 -19.500  -0.5698   0.24030   0.23488   0.0048  1.0000  0.0250  -1.3242   0.0000   0.0000   0.0000   0.2453
 -19.000  -0.5547   0.23479   0.22938   0.0022  1.0000  0.0260  -1.2968   0.0000   0.0000   0.0000   0.2411
 -18.500  -0.5397   0.22947   0.22408  -0.0006  1.0000  0.0271  -1.3183   0.0000   0.0000   0.0000   0.2364
 -18.000  -0.5265   0.22596   0.22059  -0.0042  1.0000  0.0280  -1.3988   0.0000   0.0000   0.0000   0.2300
 -17.500  -0.5198   0.22559   0.22027  -0.0084  1.0000  0.0283  -1.5227   0.0000   0.0000   0.0000   0.2223
 -17.000  -0.4988   0.21340   0.20807  -0.0087  1.0000  0.0290  -1.4386   0.0000   0.0000   0.0000   0.2212
 -16.500  -0.4830   0.20653   0.20123  -0.0097  1.0000  0.0300  -1.3731   0.0000   0.0000   0.0000   0.2187
 -16.000  -0.4688   0.20078   0.19550  -0.0113  1.0000  0.0311  -1.3460   0.0000   0.0000   0.0000   0.2150
 -15.500  -0.4551   0.19515   0.18990  -0.0130  1.0000  0.0323  -1.3320   0.0000   0.0000   0.0000   0.2109
 -15.000  -0.4419   0.18951   0.18429  -0.0147  1.0000  0.0337  -1.3245   0.0000   0.0000   0.0000   0.2065
 -14.500  -0.4292   0.18393   0.17874  -0.0163  1.0000  0.0352  -1.3243   0.0000   0.0000   0.0000   0.2019
 -14.000  -0.4179   0.17883   0.17368  -0.0183  1.0000  0.0365  -1.3489   0.0000   0.0000   0.0000   0.1964
 -13.500  -0.4109   0.17511   0.16998  -0.0209  1.0000  0.0371  -1.4135   0.0000   0.0000   0.0000   0.1897
 -13.000  -0.4083   0.17206   0.16700  -0.0235  1.0000  0.0373  -1.4863   0.0000   0.0000   0.0000   0.1836
 -12.500  -0.3890   0.16220   0.15719  -0.0228  1.0000  0.0380  -1.3841   0.0000   0.0000   0.0000   0.1825
 -12.000  -0.3749   0.15549   0.15051  -0.0223  1.0000  0.0393  -1.2883   0.0000   0.0000   0.0000   0.1816
 -11.500  -0.3645   0.14994   0.14501  -0.0227  1.0000  0.0410  -1.2459   0.0000   0.0000   0.0000   0.1792
 -11.000  -0.3558   0.14455   0.13968  -0.0232  1.0000  0.0430  -1.2610   0.0000   0.0000   0.0000   0.1765
 -10.500  -0.3508   0.13994   0.13514  -0.0244  1.0000  0.0451  -1.3277   0.0000   0.0000   0.0000   0.1725
 -10.000  -0.3578   0.13775   0.13306  -0.0267  1.0000  0.0459  -1.4773   0.0000   0.0000   0.0000   0.1681
  -9.750  -0.3627   0.13655   0.13193  -0.0277  1.0000  0.0460  -1.5509   0.0000   0.0000   0.0000   0.1669
  -9.500  -0.3463   0.12988   0.12526  -0.0257  1.0000  0.0467  -1.4643   0.0000   0.0000   0.0000   0.1687
  -9.250  -0.3367   0.12601   0.12141  -0.0243  1.0000  0.0477  -1.3970   0.0000   0.0000   0.0000   0.1709
  -9.000  -0.3321   0.12332   0.11876  -0.0235  1.0000  0.0491  -1.3716   0.0000   0.0000   0.0000   0.1723
  -8.750  -0.3293   0.12089   0.11634  -0.0230  1.0000  0.0507  -1.3668   0.0000   0.0000   0.0000   0.1734
  -8.500  -0.3281   0.11860   0.11409  -0.0227  1.0000  0.0525  -1.3793   0.0000   0.0000   0.0000   0.1743
  -8.250  -0.3300   0.11672   0.11226  -0.0228  1.0000  0.0544  -1.4218   0.0000   0.0000   0.0000   0.1748
  -8.000  -0.3388   0.11592   0.11153  -0.0233  1.0000  0.0553  -1.5085   0.0000   0.0000   0.0000   0.1755
  -7.750  -0.3510   0.11537   0.11107  -0.0235  1.0000  0.0556  -1.5977   0.0000   0.0000   0.0000   0.1780
  -7.500  -0.3641   0.11469   0.11048  -0.0229  1.0000  0.0558  -1.6779   0.0000   0.0000   0.0000   0.1825
  -7.250  -0.3365   0.10753   0.10330  -0.0201  1.0000  0.0576  -1.5122   0.0000   0.0000   0.0000   0.1852
  -7.000  -0.3350   0.10519   0.10102  -0.0186  1.0000  0.0588  -1.4896   0.0000   0.0000   0.0000   0.1897
  -6.750  -0.3373   0.10323   0.09911  -0.0171  1.0000  0.0602  -1.4899   0.0000   0.0000   0.0000   0.1946
  -6.500  -0.3424   0.10149   0.09743  -0.0156  1.0000  0.0615  -1.5034   0.0000   0.0000   0.0000   0.2002
  -6.250  -0.3509   0.10003   0.09604  -0.0137  1.0000  0.0629  -1.5290   0.0000   0.0000   0.0000   0.2069
  -6.000  -0.3626   0.09883   0.09492  -0.0121  1.0000  0.0641  -1.5718   0.0000   0.0000   0.0000   0.2130
  -5.750  -0.3717   0.09748   0.09365  -0.0150  1.0000  0.0653  -1.6754   0.0000   0.0000   0.0000   0.2064
  -5.500  -0.3694   0.09491   0.09113  -0.0243  1.0000  0.0658  -1.8386   0.0000   0.0000   0.0000   0.1809
  -5.250  -0.3696   0.09143   0.08771  -0.0166  1.0000  0.0666  -1.7230   0.0000   0.0000   0.0000   0.2020
  -5.000  -0.3664   0.08890   0.08522  -0.0134  1.0000  0.0679  -1.6553   0.0000   0.0000   0.0000   0.2104
  -4.750  -0.3623   0.08647   0.08282  -0.0131  1.0000  0.0697  -1.6288   0.0000   0.0000   0.0000   0.2110
  -4.500  -0.3557   0.08373   0.08012  -0.0151  1.0000  0.0723  -1.6319   0.0000   0.0000   0.0000   0.2048
  -4.250  -0.3245   0.07818   0.07453  -0.0322  1.0000  0.0762  -1.7965   0.0000   0.0000   0.0000   0.1479
  -4.000  -0.3241   0.07589   0.07230  -0.0273  1.0000  0.0772  -1.7098   0.0000   0.0000   0.0000   0.1628
  -3.750  -0.3156   0.07347   0.06991  -0.0264  1.0000  0.0792  -1.6493   0.0000   0.0000   0.0000   0.1634
  -2.500   0.0664   0.03088   0.02440  -0.1144  0.9903  0.0557  -2.1987   0.0000   0.0000   0.0000   1.9877
  -2.250   0.1243   0.02766   0.02048  -0.1209  0.9888  0.0554  -2.1530   0.0000   0.0000   0.0000   1.2296
  -2.000   0.1750   0.02564   0.01806  -0.1255  0.9856  0.0582  -2.0457   0.0000   0.0000   0.0000   0.9716
  -1.750   0.2238   0.02434   0.01647  -0.1292  0.9815  0.0672  -1.9308   0.0000   0.0000   0.0000   0.8307
  -1.500   0.2706   0.02360   0.01559  -0.1327  0.9763  0.0863  -1.7665   0.0000   0.0000   0.0000   0.7426
  -1.250   0.3176   0.02310   0.01518  -0.1364  0.9709  0.1118  -1.5492   0.0000   0.0000   0.0000   0.6810
  -1.000   0.3605   0.02271   0.01486  -0.1393  0.9635  0.1499  -1.3587   0.0000   0.0000   0.0000   0.6374
  -0.750   0.4029   0.02253   0.01484  -0.1423  0.9557  0.2045  -1.1724   0.0000   0.0000   0.0000   0.6035
  -0.500   0.4461   0.02238   0.01492  -0.1453  0.9480  0.2809  -0.9767   0.0000   0.0000   0.0000   0.5759
  -0.250   0.4935   0.02196   0.01479  -0.1489  0.9417  0.3612  -0.7835   0.0000   0.0000   0.0000   0.5515
   0.000   0.5355   0.02143   0.01464  -0.1514  0.9330  0.4655  -0.6397   0.0000   0.0000   0.0000   0.5322
   0.250   0.5739   0.02068   0.01452  -0.1528  0.9246  0.6600  -0.6770   0.0000   0.0000   0.0000   0.5153
   0.500   0.6009   0.01974   0.01395  -0.1513  0.9141  1.0000  -0.7089   0.0000   0.0000   0.0000   0.5005
   0.750   0.6433   0.01948   0.01350  -0.1535  0.9045  1.0000  -0.7530   0.0000   0.0000   0.0000   0.4871
   1.000   0.6861   0.01911   0.01300  -0.1557  0.8949  1.0000  -0.7984   0.0000   0.0000   0.0000   0.4750
   1.250   0.7294   0.01863   0.01242  -0.1577  0.8854  1.0000  -0.8472   0.0000   0.0000   0.0000   0.4641
   1.500   0.7776   0.01792   0.01164  -0.1605  0.8784  1.0000  -0.9058   0.0000   0.0000   0.0000   0.4540
   1.750   0.8186   0.01729   0.01097  -0.1619  0.8682  1.0000  -0.9622   0.0000   0.0000   0.0000   0.4451
   2.000   0.8607   0.01660   0.01026  -0.1635  0.8575  1.0000  -1.0248   0.0000   0.0000   0.0000   0.4369
   2.250   0.9013   0.01597   0.00963  -0.1647  0.8443  1.0000  -1.0869   0.0000   0.0000   0.0000   0.4295
   2.500   0.9431   0.01535   0.00900  -0.1661  0.8286  1.0000  -1.1516   0.0000   0.0000   0.0000   0.4227
   2.750   0.9894   0.01474   0.00837  -0.1685  0.8104  1.0000  -1.2282   0.0000   0.0000   0.0000   0.4165
   3.000   1.0352   0.01430   0.00792  -0.1709  0.7866  1.0000  -1.3083   0.0000   0.0000   0.0000   0.4110
   3.250   1.0788   0.01405   0.00758  -0.1729  0.7570  1.0000  -1.3920   0.0000   0.0000   0.0000   0.4059
   3.500   1.1161   0.01404   0.00743  -0.1737  0.7210  1.0000  -1.4704   0.0000   0.0000   0.0000   0.4010
   3.750   1.1485   0.01423   0.00746  -0.1736  0.6816  1.0000  -1.5438   0.0000   0.0000   0.0000   0.3962
   4.000   1.1758   0.01459   0.00761  -0.1727  0.6406  1.0000  -1.6193   0.0000   0.0000   0.0000   0.3916
   4.250   1.1997   0.01506   0.00786  -0.1711  0.5998  1.0000  -1.7078   0.0000   0.0000   0.0000   0.3871
   4.500   1.2218   0.01560   0.00819  -0.1694  0.5602  1.0000  -1.7944   0.0000   0.0000   0.0000   0.3827
   4.750   1.2427   0.01621   0.00859  -0.1674  0.5225  1.0000  -1.8797   0.0000   0.0000   0.0000   0.3785
   5.000   1.2630   0.01686   0.00909  -0.1655  0.4873  1.0000  -1.9647   0.0000   0.0000   0.0000   0.3745
   5.250   1.2828   0.01754   0.00959  -0.1635  0.4542  1.0000  -2.0496   0.0000   0.0000   0.0000   0.3706
   5.500   1.3023   0.01824   0.01014  -0.1615  0.4229  1.0000  -2.1345   0.0000   0.0000   0.0000   0.3669
   5.750   1.3217   0.01897   0.01073  -0.1596  0.3937  1.0000  -2.2198   0.0000   0.0000   0.0000   0.3632
   6.000   1.3402   0.01973   0.01132  -0.1575  0.3662  1.0000  -2.3389   0.0000   0.0000   0.0000   0.3597
   6.250   1.3577   0.02044   0.01194  -0.1553  0.3378  1.0000  -2.4757   0.0000   0.0000   0.0000   0.3562
   6.500   1.3746   0.02120   0.01255  -0.1530  0.3121  1.0000  -2.6137   0.0000   0.0000   0.0000   0.3528
   6.750   1.3916   0.02193   0.01321  -0.1508  0.2878  1.0000  -2.7539   0.0000   0.0000   0.0000   0.3495
   7.000   1.4090   0.02271   0.01401  -0.1487  0.2670  1.0000  -2.8970   0.0000   0.0000   0.0000   0.3463
   7.250   1.4271   0.02351   0.01480  -0.1467  0.2487  1.0000  -3.0558   0.0000   0.0000   0.0000   0.3432
   7.500   1.4441   0.02433   0.01560  -0.1446  0.2312  1.0000  -3.2249   0.0000   0.0000   0.0000   0.3402
   7.750   1.4592   0.02515   0.01638  -0.1421  0.2148  1.0000  -3.3913   0.0000   0.0000   0.0000   0.3371
   8.000   1.4747   0.02597   0.01723  -0.1398  0.1992  1.0000  -3.5603   0.0000   0.0000   0.0000   0.3341
   8.250   1.4903   0.02685   0.01815  -0.1375  0.1858  1.0000  -3.7310   0.0000   0.0000   0.0000   0.3312
   8.500   1.5056   0.02781   0.01916  -0.1352  0.1741  1.0000  -3.9019   0.0000   0.0000   0.0000   0.3284
   8.750   1.5203   0.02882   0.02022  -0.1328  0.1630  1.0000  -4.0712   0.0000   0.0000   0.0000   0.3255
   9.000   1.5340   0.02990   0.02136  -0.1303  0.1523  1.0000  -4.2378   0.0000   0.0000   0.0000   0.3228
   9.250   1.5461   0.03101   0.02255  -0.1277  0.1413  1.0000  -4.3987   0.0000   0.0000   0.0000   0.3200
   9.500   1.5563   0.03218   0.02387  -0.1248  0.1301  1.0000  -4.5534   0.0000   0.0000   0.0000   0.3172
   9.750   1.5655   0.03350   0.02527  -0.1219  0.1193  1.0000  -4.7007   0.0000   0.0000   0.0000   0.3145
  10.000   1.5731   0.03500   0.02686  -0.1190  0.1088  1.0000  -4.8368   0.0000   0.0000   0.0000   0.3118
  10.250   1.5783   0.03665   0.02859  -0.1158  0.0980  1.0000  -4.9608   0.0000   0.0000   0.0000   0.3092
  10.500   1.5824   0.03854   0.03058  -0.1127  0.0879  1.0000  -5.0702   0.0000   0.0000   0.0000   0.3066
  10.750   1.5853   0.04066   0.03283  -0.1096  0.0787  1.0000  -5.1627   0.0000   0.0000   0.0000   0.3041
  11.000   1.5872   0.04309   0.03539  -0.1066  0.0709  1.0000  -5.2377   0.0000   0.0000   0.0000   0.3017
  11.250   1.5876   0.04576   0.03809  -0.1038  0.0652  1.0000  -5.3087   0.0000   0.0000   0.0000   0.2994
  11.500   1.5898   0.04838   0.04091  -0.1012  0.0600  1.0000  -5.3752   0.0000   0.0000   0.0000   0.2973
  11.750   1.5912   0.05127   0.04378  -0.0990  0.0563  1.0000  -5.4562   0.0000   0.0000   0.0000   0.2954
  12.000   1.5921   0.05419   0.04707  -0.0968  0.0530  1.0000  -5.5125   0.0000   0.0000   0.0000   0.2935
  12.250   1.5920   0.05709   0.05014  -0.0949  0.0503  1.0000  -5.5874   0.0000   0.0000   0.0000   0.2919
  12.500   1.5928   0.06014   0.05322  -0.0934  0.0482  1.0000  -5.6736   0.0000   0.0000   0.0000   0.2904
  12.750   1.5936   0.06386   0.05713  -0.0918  0.0468  1.0000  -5.7240   0.0000   0.0000   0.0000   0.2890
  13.000   1.5892   0.06786   0.06147  -0.0905  0.0459  1.0000  -5.7613   0.0000   0.0000   0.0000   0.2878
  13.250   1.5817   0.07227   0.06621  -0.0896  0.0452  1.0000  -5.7895   0.0000   0.0000   0.0000   0.2870
  13.500   1.5711   0.07713   0.07139  -0.0893  0.0446  1.0000  -5.7986   0.0000   0.0000   0.0000   0.2867
  13.750   1.5578   0.08247   0.07704  -0.0895  0.0442  1.0000  -5.7889   0.0000   0.0000   0.0000   0.2869
  14.000   1.5418   0.08837   0.08323  -0.0906  0.0439  1.0000  -5.7585   0.0000   0.0000   0.0000   0.2877
  14.250   1.5235   0.09492   0.09007  -0.0927  0.0437  1.0000  -5.7066   0.0000   0.0000   0.0000   0.2893
  14.500   1.5030   0.10221   0.09765  -0.0958  0.0437  1.0000  -5.6298   0.0000   0.0000   0.0000   0.2917
  14.750   1.4802   0.11041   0.10612  -0.1002  0.0438  1.0000  -5.5235   0.0000   0.0000   0.0000   0.2952
  15.000   1.4548   0.11976   0.11573  -0.1061  0.0440  1.0000  -5.3795   0.0000   0.0000   0.0000   0.3000
  15.250   1.4260   0.13061   0.12682  -0.1138  0.0445  1.0000  -5.1830   0.0000   0.0000   0.0000   0.3065
  15.500   1.3927   0.14365   0.14007  -0.1236  0.0452  1.0000  -4.9063   0.0000   0.0000   0.0000   0.3153
  15.750   1.3544   0.15959   0.15613  -0.1358  0.0462  1.0000  -4.5091   0.0000   0.0000   0.0000   0.3268
  16.000   1.3208   0.17590   0.17244  -0.1476  0.0471  1.0000  -4.0624   0.0000   0.0000   0.0000   0.3385
  16.750   1.2675   0.22113   0.21748  -0.1766  0.0556  1.0000  -2.7196   0.0000   0.0000   0.0000   0.3668
  17.000   1.2784   0.22423   0.22062  -0.1770  0.0565  1.0000  -2.7952   0.0000   0.0000   0.0000   0.3653
  17.500   1.2646   0.24707   0.24332  -0.1946  0.0821  1.0000  -2.1087   0.0000   0.0000   0.0000   0.3810
  18.000   1.2815   0.25437   0.25071  -0.1984  0.0786  1.0000  -2.1512   0.0000   0.0000   0.0000   0.3809
  18.500   1.3181   0.26517   0.26162  -0.1955  0.0766  1.0000  -2.3881   0.0000   0.0000   0.0000   0.3732
  19.000   1.3058   0.27048   0.26683  -0.2102  0.0739  1.0000  -2.0770   0.0000   0.0000   0.0000   0.3852
  19.500   1.3205   0.27743   0.27381  -0.2152  0.0696  1.0000  -2.1017   0.0000   0.0000   0.0000   0.3861
  20.000   1.3490   0.28652   0.28300  -0.2143  0.0669  1.0000  -2.4178   0.0000   0.0000   0.0000   0.3808


