xflr5 v6.61

 Calculated polar for: E63_13_00

 1 1 Reynolds number fixed          Mach number fixed         

 xtrf =   1.000 (top)        1.000 (bottom)
 Mach =   0.200     Re =     0.125 e 6     Ncrit =   7.000

  alpha     CL        CD       CDp       Cm    Top Xtr Bot Xtr   Cpmin    Chinge    XCp    
 ------- -------- --------- --------- -------- ------- ------- -------- --------- ---------
 -26.500  -0.7102   0.31298   0.30716   0.0341  1.0000  0.0285  -1.6892   0.0000   0.0000   0.0000   0.2616
 -26.000  -0.6927   0.30400   0.29817   0.0320  1.0000  0.0290  -1.6059   0.0000   0.0000   0.0000   0.2605
 -25.500  -0.6771   0.29841   0.29258   0.0291  1.0000  0.0295  -1.5521   0.0000   0.0000   0.0000   0.2581
 -25.000  -0.6618   0.29340   0.28758   0.0259  1.0000  0.0302  -1.5117   0.0000   0.0000   0.0000   0.2552
 -24.500  -0.6464   0.28846   0.28265   0.0227  1.0000  0.0310  -1.4787   0.0000   0.0000   0.0000   0.2519
 -24.000  -0.6311   0.28348   0.27765   0.0195  1.0000  0.0319  -1.4504   0.0000   0.0000   0.0000   0.2484
 -23.500  -0.6157   0.27842   0.27260   0.0163  1.0000  0.0329  -1.4255   0.0000   0.0000   0.0000   0.2447
 -23.000  -0.6004   0.27327   0.26746   0.0131  1.0000  0.0342  -1.4044   0.0000   0.0000   0.0000   0.2407
 -22.500  -0.5851   0.26807   0.26227   0.0099  1.0000  0.0356  -1.4005   0.0000   0.0000   0.0000   0.2364
 -22.000  -0.5704   0.26310   0.25732   0.0064  1.0000  0.0366  -1.4432   0.0000   0.0000   0.0000   0.2312
 -21.500  -0.5578   0.25911   0.25334   0.0024  1.0000  0.0371  -1.5142   0.0000   0.0000   0.0000   0.2249
 -21.000  -0.5479   0.25629   0.25055  -0.0017  1.0000  0.0373  -1.5998   0.0000   0.0000   0.0000   0.2180
 -20.500  -0.5303   0.24824   0.24252  -0.0036  1.0000  0.0377  -1.5737   0.0000   0.0000   0.0000   0.2147
 -20.000  -0.5111   0.24104   0.23533  -0.0047  1.0000  0.0384  -1.4878   0.0000   0.0000   0.0000   0.2127
 -19.500  -0.4948   0.23564   0.22996  -0.0066  1.0000  0.0394  -1.4429   0.0000   0.0000   0.0000   0.2091
 -19.000  -0.4793   0.23039   0.22474  -0.0087  1.0000  0.0406  -1.4162   0.0000   0.0000   0.0000   0.2047
 -18.500  -0.4643   0.22507   0.21945  -0.0108  1.0000  0.0422  -1.4013   0.0000   0.0000   0.0000   0.1999
 -18.000  -0.4503   0.21968   0.21410  -0.0132  1.0000  0.0441  -1.4040   0.0000   0.0000   0.0000   0.1944
 -17.500  -0.4400   0.21510   0.20953  -0.0165  1.0000  0.0456  -1.4658   0.0000   0.0000   0.0000   0.1867
 -17.000  -0.4339   0.21145   0.20593  -0.0199  1.0000  0.0460  -1.5442   0.0000   0.0000   0.0000   0.1789
 -16.500  -0.4222   0.20502   0.19956  -0.0218  1.0000  0.0463  -1.5553   0.0000   0.0000   0.0000   0.1734
 -16.000  -0.3993   0.19700   0.19157  -0.0211  1.0000  0.0474  -1.4208   0.0000   0.0000   0.0000   0.1723
 -15.500  -0.3841   0.19162   0.18623  -0.0218  1.0000  0.0490  -1.3659   0.0000   0.0000   0.0000   0.1687
 -15.000  -0.3711   0.18635   0.18100  -0.0229  1.0000  0.0516  -1.3586   0.0000   0.0000   0.0000   0.1642
 -14.000  -0.2626   0.16909   0.16440  -0.0285  1.0000  0.0571  -1.1680   0.0000   0.0000   0.0000   0.1222
 -13.500  -0.2553   0.16494   0.16028  -0.0279  1.0000  0.0585  -1.1442   0.0000   0.0000   0.0000   0.1215
 -13.000  -0.2509   0.16079   0.15617  -0.0276  1.0000  0.0603  -1.1449   0.0000   0.0000   0.0000   0.1210
 -12.500  -0.2487   0.15643   0.15184  -0.0276  1.0000  0.0626  -1.1638   0.0000   0.0000   0.0000   0.1207
 -12.000  -0.2532   0.15194   0.14740  -0.0283  1.0000  0.0649  -1.2377   0.0000   0.0000   0.0000   0.1203
 -11.500  -0.2620   0.14730   0.14279  -0.0292  1.0000  0.0655  -1.3332   0.0000   0.0000   0.0000   0.1215
 -11.000  -0.2693   0.14215   0.13770  -0.0295  1.0000  0.0657  -1.4099   0.0000   0.0000   0.0000   0.1242
 -10.000  -0.3271   0.12412   0.11934  -0.0312  1.0000  0.0455  -1.9193   0.0000   0.0000   0.0000   0.1364
  -9.500  -0.3299   0.11780   0.11310  -0.0305  1.0000  0.0451  -1.9785   0.0000   0.0000   0.0000   0.1403
  -9.000  -0.3457   0.10987   0.10527  -0.0308  1.0000  0.0454  -2.1896   0.0000   0.0000   0.0000   0.1448
  -8.500  -0.3597   0.10349   0.09901  -0.0298  1.0000  0.0471  -2.3342   0.0000   0.0000   0.0000   0.1523
  -8.000  -0.3611   0.10053   0.09615  -0.0269  1.0000  0.0495  -2.2857   0.0000   0.0000   0.0000   0.1621
  -7.500  -0.3839   0.09496   0.09069  -0.0250  1.0000  0.0511  -2.4230   0.0000   0.0000   0.0000   0.1728
  -7.000  -0.3883   0.08450   0.08023  -0.0347  0.9894  0.0529  -2.6618   0.0000   0.0000   0.0000   0.1487
  -6.500  -0.3710   0.03177   0.02513  -0.1093  0.9737  0.0551  -4.0521   0.0000   0.0000   0.0000  -0.0598
  -6.000  -0.2949   0.02939   0.02240  -0.1152  0.9649  0.0590  -3.6662   0.0000   0.0000   0.0000  -0.1581
  -5.500  -0.2173   0.02744   0.01989  -0.1205  0.9554  0.0658  -3.2871   0.0000   0.0000   0.0000  -0.3258
  -5.000  -0.1419   0.02632   0.01862  -0.1246  0.9452  0.0726  -2.8933   0.0000   0.0000   0.0000  -0.6569
  -4.000   0.0108   0.02478   0.01683  -0.1323  0.9229  0.1011  -2.2365   0.0000   0.0000   0.0000  12.7979
  -3.500   0.0892   0.02367   0.01549  -0.1360  0.9113  0.1189  -2.0063   0.0000   0.0000   0.0000   1.8032
  -3.000   0.1671   0.02280   0.01461  -0.1394  0.8996  0.1389  -1.7619   0.0000   0.0000   0.0000   1.0965
  -2.500   0.2352   0.02207   0.01388  -0.1408  0.8829  0.1611  -1.5390   0.0000   0.0000   0.0000   0.8554
  -2.000   0.3129   0.02094   0.01273  -0.1436  0.8697  0.1844  -1.3273   0.0000   0.0000   0.0000   0.7124
  -1.500   0.3916   0.01963   0.01153  -0.1464  0.8572  0.2092  -1.1301   0.0000   0.0000   0.0000   0.6251
  -1.000   0.4622   0.01858   0.01053  -0.1476  0.8385  0.2381  -0.9509   0.0000   0.0000   0.0000   0.5694
  -0.500   0.5390   0.01741   0.00950  -0.1499  0.8183  0.2731  -0.8658   0.0000   0.0000   0.0000   0.5270
   0.000   0.6230   0.01630   0.00854  -0.1536  0.7936  0.3223  -0.9587   0.0000   0.0000   0.0000   0.4946
   0.500   0.7073   0.01552   0.00789  -0.1576  0.7604  0.3845  -1.0571   0.0000   0.0000   0.0000   0.4701
   1.000   0.7836   0.01513   0.00763  -0.1602  0.7186  0.4722  -1.1587   0.0000   0.0000   0.0000   0.4509
   1.500   0.8488   0.01499   0.00761  -0.1605  0.6725  0.5863  -1.2634   0.0000   0.0000   0.0000   0.4349
   2.000   0.8967   0.01496   0.00778  -0.1572  0.6254  0.7441  -1.3538   0.0000   0.0000   0.0000   0.4204
   2.500   0.9393   0.01500   0.00774  -0.1528  0.5803  1.0000  -1.4402   0.0000   0.0000   0.0000   0.4072
   3.000   0.9889   0.01572   0.00805  -0.1508  0.5358  1.0000  -1.5338   0.0000   0.0000   0.0000   0.3962
   3.500   1.0352   0.01652   0.00847  -0.1481  0.4943  1.0000  -1.6255   0.0000   0.0000   0.0000   0.3862
   4.000   1.0792   0.01736   0.00901  -0.1451  0.4560  1.0000  -1.7159   0.0000   0.0000   0.0000   0.3769
   4.500   1.1212   0.01826   0.00961  -0.1418  0.4216  1.0000  -1.8111   0.0000   0.0000   0.0000   0.3682
   5.000   1.1627   0.01919   0.01033  -0.1385  0.3911  1.0000  -1.9147   0.0000   0.0000   0.0000   0.3602
   5.500   1.2046   0.02020   0.01118  -0.1354  0.3652  1.0000  -2.0199   0.0000   0.0000   0.0000   0.3527
   6.000   1.2459   0.02126   0.01210  -0.1322  0.3415  1.0000  -2.1296   0.0000   0.0000   0.0000   0.3458
   6.500   1.2862   0.02240   0.01311  -0.1289  0.3200  1.0000  -2.2434   0.0000   0.0000   0.0000   0.3392
   7.000   1.3262   0.02362   0.01421  -0.1257  0.3012  1.0000  -2.3647   0.0000   0.0000   0.0000   0.3330
   7.500   1.3647   0.02489   0.01552  -0.1224  0.2832  1.0000  -2.4877   0.0000   0.0000   0.0000   0.3271
   8.000   1.4006   0.02624   0.01679  -0.1187  0.2667  1.0000  -2.6095   0.0000   0.0000   0.0000   0.3214
   8.500   1.4349   0.02768   0.01826  -0.1148  0.2511  1.0000  -2.7289   0.0000   0.0000   0.0000   0.3159
   9.000   1.4700   0.02926   0.01983  -0.1113  0.2381  1.0000  -2.8567   0.0000   0.0000   0.0000   0.3108
   9.500   1.5034   0.03095   0.02152  -0.1077  0.2261  1.0000  -3.0203   0.0000   0.0000   0.0000   0.3058
  10.000   1.5344   0.03276   0.02343  -0.1038  0.2148  1.0000  -3.1814   0.0000   0.0000   0.0000   0.3010
  10.500   1.5631   0.03474   0.02551  -0.0999  0.2045  1.0000  -3.3390   0.0000   0.0000   0.0000   0.2964
  11.000   1.5850   0.03689   0.02778  -0.0954  0.1941  1.0000  -3.4856   0.0000   0.0000   0.0000   0.2918
  11.500   1.6014   0.03929   0.03034  -0.0907  0.1839  1.0000  -3.6223   0.0000   0.0000   0.0000   0.2873
  12.000   1.6151   0.04205   0.03328  -0.0862  0.1747  1.0000  -3.7529   0.0000   0.0000   0.0000   0.2831
  12.500   1.6268   0.04515   0.03660  -0.0821  0.1664  1.0000  -3.8787   0.0000   0.0000   0.0000   0.2792
  13.000   1.6376   0.04850   0.04006  -0.0786  0.1589  1.0000  -4.0040   0.0000   0.0000   0.0000   0.2757
  13.500   1.6426   0.05258   0.04442  -0.0753  0.1518  1.0000  -4.1102   0.0000   0.0000   0.0000   0.2725
  14.000   1.6450   0.05730   0.04941  -0.0727  0.1456  1.0000  -4.2063   0.0000   0.0000   0.0000   0.2698
  14.500   1.6487   0.06203   0.05431  -0.0709  0.1396  1.0000  -4.3439   0.0000   0.0000   0.0000   0.2675
  15.000   1.6359   0.06904   0.06174  -0.0700  0.1336  1.0000  -4.4377   0.0000   0.0000   0.0000   0.2661
  15.500   1.6370   0.07472   0.06749  -0.0696  0.1282  1.0000  -4.5875   0.0000   0.0000   0.0000   0.2647
  16.000   1.6103   0.08473   0.07802  -0.0715  0.1232  1.0000  -4.6129   0.0000   0.0000   0.0000   0.2654
  16.500   1.6052   0.09207   0.08551  -0.0731  0.1187  1.0000  -4.7261   0.0000   0.0000   0.0000   0.2653
  17.000   1.5661   0.10535   0.09928  -0.0785  0.1147  1.0000  -4.6733   0.0000   0.0000   0.0000   0.2688
  17.500   1.5198   0.12084   0.11519  -0.0866  0.1106  1.0000  -4.5634   0.0000   0.0000   0.0000   0.2745
  18.000   1.5060   0.13087   0.12536  -0.0918  0.1066  1.0000  -4.5977   0.0000   0.0000   0.0000   0.2773
  18.500   1.3343   0.17611   0.17112  -0.1237  0.0972  1.0000  -3.6354   0.0000   0.0000   0.0000   0.3097
  20.000   1.2699   0.22274   0.21791  -0.1555  0.0770  1.0000  -3.0608   0.0000   0.0000   0.0000   0.3380


