xflr5 v6.61

 Calculated polar for: E63_16_00

 1 1 Reynolds number fixed          Mach number fixed         

 xtrf =   1.000 (top)        1.000 (bottom)
 Mach =   0.200     Re =     0.070 e 6     Ncrit =   7.000

  alpha     CL        CD       CDp       Cm    Top Xtr Bot Xtr   Cpmin    Chinge    XCp    
 ------- -------- --------- --------- -------- ------- ------- -------- --------- ---------
 -30.000  -0.7612   0.34187   0.33381   0.0521  1.0000  0.0463  -1.6398   0.0000   0.0000   0.0000   0.2646
 -29.500  -0.7448   0.33369   0.32562   0.0495  1.0000  0.0471  -1.5734   0.0000   0.0000   0.0000   0.2635
 -29.000  -0.7298   0.32865   0.32056   0.0461  1.0000  0.0482  -1.5278   0.0000   0.0000   0.0000   0.2613
 -28.500  -0.7152   0.32416   0.31607   0.0426  1.0000  0.0498  -1.4933   0.0000   0.0000   0.0000   0.2587
 -28.000  -0.7006   0.31971   0.31162   0.0388  1.0000  0.0515  -1.4676   0.0000   0.0000   0.0000   0.2556
 -27.500  -0.6862   0.31521   0.30712   0.0351  1.0000  0.0531  -1.4670   0.0000   0.0000   0.0000   0.2522
 -27.000  -0.6719   0.31089   0.30278   0.0311  1.0000  0.0545  -1.4803   0.0000   0.0000   0.0000   0.2482
 -26.500  -0.6585   0.30725   0.29915   0.0269  1.0000  0.0553  -1.5081   0.0000   0.0000   0.0000   0.2436
 -26.000  -0.6464   0.30471   0.29661   0.0224  1.0000  0.0556  -1.5460   0.0000   0.0000   0.0000   0.2385
 -25.000  -0.6143   0.29206   0.28402   0.0165  1.0000  0.0567  -1.5061   0.0000   0.0000   0.0000   0.2320
 -24.500  -0.5970   0.28632   0.27827   0.0140  1.0000  0.0580  -1.4595   0.0000   0.0000   0.0000   0.2293
 -24.000  -0.5808   0.28137   0.27334   0.0112  1.0000  0.0597  -1.4313   0.0000   0.0000   0.0000   0.2256
 -23.500  -0.5651   0.27650   0.26849   0.0082  1.0000  0.0617  -1.4136   0.0000   0.0000   0.0000   0.2215
 -23.000  -0.5503   0.27180   0.26381   0.0049  1.0000  0.0640  -1.4100   0.0000   0.0000   0.0000   0.2166
 -22.500  -0.5398   0.26927   0.26131   0.0006  1.0000  0.0656  -1.4558   0.0000   0.0000   0.0000   0.2095
 -22.000  -0.5245   0.26324   0.25533  -0.0021  1.0000  0.0663  -1.4398   0.0000   0.0000   0.0000   0.2048
 -21.500  -0.5049   0.25642   0.24853  -0.0036  1.0000  0.0679  -1.3809   0.0000   0.0000   0.0000   0.2020
 -21.000  -0.4883   0.25125   0.24337  -0.0058  1.0000  0.0698  -1.3622   0.0000   0.0000   0.0000   0.1976
 -20.500  -0.4729   0.24624   0.23840  -0.0083  1.0000  0.0722  -1.3585   0.0000   0.0000   0.0000   0.1925
 -20.000  -0.4597   0.24173   0.23392  -0.0112  1.0000  0.0746  -1.3810   0.0000   0.0000   0.0000   0.1860
 -19.500  -0.4517   0.23889   0.23114  -0.0150  1.0000  0.0756  -1.4418   0.0000   0.0000   0.0000   0.1782
 -19.000  -0.4362   0.23232   0.22463  -0.0169  1.0000  0.0762  -1.4334   0.0000   0.0000   0.0000   0.1729
 -18.500  -0.4154   0.22528   0.21763  -0.0175  1.0000  0.0780  -1.3667   0.0000   0.0000   0.0000   0.1693
 -18.000  -0.3994   0.21998   0.21236  -0.0189  1.0000  0.0806  -1.3392   0.0000   0.0000   0.0000   0.1642
 -17.500  -0.3862   0.21495   0.20738  -0.0209  1.0000  0.0840  -1.3390   0.0000   0.0000   0.0000   0.1579
 -17.000  -0.3810   0.21127   0.20377  -0.0240  1.0000  0.0861  -1.4023   0.0000   0.0000   0.0000   0.1498
 -16.500  -0.3664   0.20461   0.19718  -0.0252  1.0000  0.0872  -1.3907   0.0000   0.0000   0.0000   0.1443
 -16.000  -0.3475   0.19847   0.19110  -0.0253  1.0000  0.0906  -1.3317   0.0000   0.0000   0.0000   0.1401
 -15.500  -0.3391   0.19369   0.18638  -0.0271  1.0000  0.0959  -1.3729   0.0000   0.0000   0.0000   0.1337
 -15.000  -0.3332   0.18804   0.18082  -0.0288  1.0000  0.0979  -1.4539   0.0000   0.0000   0.0000   0.1277
 -14.500  -0.3155   0.18200   0.17484  -0.0284  1.0000  0.1043  -1.4361   0.0000   0.0000   0.0000   0.1239
 -14.000  -0.3071   0.17652   0.16943  -0.0291  1.0000  0.1110  -1.4793   0.0000   0.0000   0.0000   0.1197
 -13.500  -0.2978   0.17174   0.16470  -0.0294  1.0000  0.1217  -1.4836   0.0000   0.0000   0.0000   0.1166
 -13.000  -0.3019   0.16888   0.16191  -0.0309  1.0000  0.1293  -1.5431   0.0000   0.0000   0.0000   0.1149
 -12.500  -0.2822   0.16188   0.15497  -0.0297  1.0000  0.1321  -1.4743   0.0000   0.0000   0.0000   0.1115
 -12.000  -0.2725   0.15703   0.15019  -0.0292  1.0000  0.1364  -1.4415   0.0000   0.0000   0.0000   0.1102
 -11.500  -0.2835   0.15404   0.14729  -0.0304  1.0000  0.1401  -1.4997   0.0000   0.0000   0.0000   0.1130
 -11.000  -0.2679   0.14767   0.14100  -0.0288  1.0000  0.1421  -1.4295   0.0000   0.0000   0.0000   0.1125
 -10.500  -0.2584   0.14297   0.13639  -0.0273  1.0000  0.1463  -1.3743   0.0000   0.0000   0.0000   0.1151
 -10.000  -0.2731   0.13989   0.13343  -0.0274  1.0000  0.1508  -1.4185   0.0000   0.0000   0.0000   0.1236
  -9.500  -0.2661   0.13451   0.12817  -0.0255  1.0000  0.1527  -1.3674   0.0000   0.0000   0.0000   0.1290
  -9.000  -0.2603   0.13051   0.12428  -0.0230  1.0000  0.1591  -1.3062   0.0000   0.0000   0.0000   0.1376
  -8.500  -0.2810   0.12724   0.12118  -0.0219  1.0000  0.1629  -1.3472   0.0000   0.0000   0.0000   0.1510
  -8.000  -0.2701   0.12289   0.11691  -0.0185  1.0000  0.1673  -1.2587   0.0000   0.0000   0.0000   0.1615
  -7.500  -0.2888   0.11987   0.11404  -0.0163  1.0000  0.1717  -1.3026   0.0000   0.0000   0.0000   0.1760
  -6.500  -0.3375   0.10366   0.09795  -0.0232  0.9920  0.1288  -1.6660   0.0000   0.0000   0.0000   0.1667
  -5.500  -0.3245   0.07600   0.07012  -0.0549  0.9536  0.1179  -2.1041   0.0000   0.0000   0.0000   0.0657
  -5.000  -0.2791   0.06585   0.05981  -0.0689  0.9346  0.1244  -2.1221   0.0000   0.0000   0.0000  -0.0129
  -4.500  -0.2087   0.04921   0.04218  -0.0953  0.9189  0.1424  -2.2372   0.0000   0.0000   0.0000  -0.2275
  -4.000  -0.1331   0.04518   0.03777  -0.1030  0.9015  0.1576  -2.1018   0.0000   0.0000   0.0000  -0.5524
  -3.500  -0.0517   0.04022   0.03201  -0.1119  0.8841  0.1740  -1.9912   0.0000   0.0000   0.0000  -1.9797
  -3.000   0.0316   0.03776   0.02929  -0.1172  0.8680  0.1876  -1.8068   0.0000   0.0000   0.0000   4.0415
  -2.500   0.1074   0.03564   0.02681  -0.1209  0.8479  0.2048  -1.6333   0.0000   0.0000   0.0000   1.3953
  -2.000   0.1828   0.03376   0.02476  -0.1236  0.8277  0.2203  -1.4531   0.0000   0.0000   0.0000   0.9347
  -1.500   0.2601   0.03193   0.02274  -0.1262  0.8079  0.2400  -1.2716   0.0000   0.0000   0.0000   0.7387
  -0.500   0.4286   0.02804   0.01879  -0.1318  0.7708  0.2919  -0.9215   0.0000   0.0000   0.0000   0.5564
   0.000   0.5031   0.02660   0.01737  -0.1331  0.7446  0.3203  -1.0053   0.0000   0.0000   0.0000   0.5119
   0.500   0.5911   0.02507   0.01583  -0.1364  0.7181  0.3607  -1.1060   0.0000   0.0000   0.0000   0.4771
   1.000   0.6714   0.02416   0.01499  -0.1387  0.6860  0.4118  -1.2027   0.0000   0.0000   0.0000   0.4520
   1.500   0.7475   0.02361   0.01446  -0.1404  0.6514  0.4749  -1.3046   0.0000   0.0000   0.0000   0.4324
   2.000   0.8087   0.02345   0.01438  -0.1396  0.6154  0.5508  -1.3961   0.0000   0.0000   0.0000   0.4165
   2.500   0.8622   0.02343   0.01453  -0.1373  0.5809  0.6544  -1.4867   0.0000   0.0000   0.0000   0.4023
   3.000   0.8997   0.02310   0.01458  -0.1313  0.5503  0.8463  -1.5689   0.0000   0.0000   0.0000   0.3883
   3.500   0.9605   0.02370   0.01472  -0.1316  0.5175  1.0000  -1.6731   0.0000   0.0000   0.0000   0.3787
   4.000   1.0145   0.02468   0.01527  -0.1306  0.4878  1.0000  -1.7720   0.0000   0.0000   0.0000   0.3696
   4.500   1.0623   0.02579   0.01609  -0.1286  0.4603  1.0000  -1.8651   0.0000   0.0000   0.0000   0.3612
   5.000   1.1104   0.02697   0.01699  -0.1266  0.4355  1.0000  -1.9593   0.0000   0.0000   0.0000   0.3534
   5.500   1.1570   0.02824   0.01802  -0.1244  0.4127  1.0000  -2.0552   0.0000   0.0000   0.0000   0.3462
   6.000   1.2005   0.02962   0.01926  -0.1218  0.3916  1.0000  -2.1584   0.0000   0.0000   0.0000   0.3394
   6.500   1.2422   0.03111   0.02060  -0.1190  0.3724  1.0000  -2.2615   0.0000   0.0000   0.0000   0.3330
   7.000   1.2897   0.03257   0.02185  -0.1172  0.3553  1.0000  -2.3741   0.0000   0.0000   0.0000   0.3272
   7.500   1.3182   0.03436   0.02370  -0.1125  0.3388  1.0000  -2.4595   0.0000   0.0000   0.0000   0.3209
   8.000   1.3574   0.03598   0.02525  -0.1095  0.3235  1.0000  -2.5653   0.0000   0.0000   0.0000   0.3155
   8.500   1.3872   0.03795   0.02724  -0.1053  0.3099  1.0000  -2.6620   0.0000   0.0000   0.0000   0.3099
   9.000   1.4128   0.04025   0.02963  -0.1008  0.2978  1.0000  -2.7507   0.0000   0.0000   0.0000   0.3045
   9.500   1.4375   0.04274   0.03221  -0.0965  0.2870  1.0000  -2.8372   0.0000   0.0000   0.0000   0.2995
  10.000   1.4585   0.04538   0.03494  -0.0919  0.2768  1.0000  -2.9271   0.0000   0.0000   0.0000   0.2945
  10.500   1.4798   0.04808   0.03770  -0.0877  0.2672  1.0000  -3.0192   0.0000   0.0000   0.0000   0.2899
  11.000   1.4773   0.05187   0.04182  -0.0816  0.2586  1.0000  -3.0670   0.0000   0.0000   0.0000   0.2850
  11.500   1.4422   0.05800   0.04839  -0.0744  0.2512  1.0000  -3.0490   0.0000   0.0000   0.0000   0.2804
  12.000   1.4266   0.06381   0.05444  -0.0702  0.2441  1.0000  -3.0635   0.0000   0.0000   0.0000   0.2771
  12.500   1.2314   0.09059   0.08203  -0.0717  0.2364  1.0000  -2.6604   0.0000   0.0000   0.0000   0.2852
  14.000   0.9892   0.16135   0.15339  -0.1053  0.2041  1.0000  -1.8299   0.0000   0.0000   0.0000   0.3334
  14.500   0.9789   0.17266   0.16477  -0.1113  0.2006  1.0000  -1.7428   0.0000   0.0000   0.0000   0.3403
  15.000   0.9855   0.18024   0.17238  -0.1150  0.1948  1.0000  -1.7487   0.0000   0.0000   0.0000   0.3425
  15.500   1.0012   0.18689   0.17906  -0.1176  0.1913  1.0000  -1.7858   0.0000   0.0000   0.0000   0.3424
  16.000   1.0072   0.19577   0.18801  -0.1221  0.1928  1.0000  -1.7677   0.0000   0.0000   0.0000   0.3456
  16.500   1.0161   0.20367   0.19594  -0.1262  0.1920  1.0000  -1.7616   0.0000   0.0000   0.0000   0.3478
  18.000   1.0253   0.22867   0.22116  -0.1432  0.2067  1.0000  -1.6021   0.0000   0.0000   0.0000   0.3612
  18.500   1.0409   0.23434   0.22690  -0.1464  0.1998  1.0000  -1.6098   0.0000   0.0000   0.0000   0.3611
  19.000   1.0645   0.24005   0.23266  -0.1482  0.1932  1.0000  -1.6491   0.0000   0.0000   0.0000   0.3585
  19.500   1.0704   0.24553   0.23816  -0.1534  0.1880  1.0000  -1.5997   0.0000   0.0000   0.0000   0.3615
  20.000   1.0970   0.25171   0.24438  -0.1546  0.1811  1.0000  -1.6495   0.0000   0.0000   0.0000   0.3579


