xflr5 v6.61

 Calculated polar for: E63_10_00

 1 1 Reynolds number fixed          Mach number fixed         

 xtrf =   1.000 (top)        1.000 (bottom)
 Mach =   0.200     Re =     0.090 e 6     Ncrit =   9.000

  alpha     CL        CD       CDp       Cm    Top Xtr Bot Xtr   Cpmin    Chinge    XCp    
 ------- -------- --------- --------- -------- ------- ------- -------- --------- ---------
 -20.000  -0.5537   0.24509   0.23855   0.0020  1.0000  0.0410  -1.3586   0.0000   0.0000   0.0000   0.2349
 -19.500  -0.5385   0.23973   0.23321  -0.0006  1.0000  0.0425  -1.3425   0.0000   0.0000   0.0000   0.2306
 -19.000  -0.5236   0.23449   0.22800  -0.0033  1.0000  0.0441  -1.3359   0.0000   0.0000   0.0000   0.2258
 -18.500  -0.5103   0.23033   0.22386  -0.0066  1.0000  0.0454  -1.3590   0.0000   0.0000   0.0000   0.2197
 -18.000  -0.5019   0.22862   0.22220  -0.0105  1.0000  0.0459  -1.4180   0.0000   0.0000   0.0000   0.2124
 -17.500  -0.4863   0.22106   0.21469  -0.0123  1.0000  0.0464  -1.3906   0.0000   0.0000   0.0000   0.2082
 -17.000  -0.4665   0.21239   0.20601  -0.0126  1.0000  0.0478  -1.2929   0.0000   0.0000   0.0000   0.2066
 -16.500  -0.4513   0.20668   0.20033  -0.0141  1.0000  0.0500  -1.2697   0.0000   0.0000   0.0000   0.2028
 -16.000  -0.4375   0.20130   0.19499  -0.0159  1.0000  0.0528  -1.2755   0.0000   0.0000   0.0000   0.1980
 -15.500  -0.4279   0.19740   0.19114  -0.0187  1.0000  0.0552  -1.3428   0.0000   0.0000   0.0000   0.1910
 -15.000  -0.4278   0.19654   0.19036  -0.0224  1.0000  0.0558  -1.4671   0.0000   0.0000   0.0000   0.1833
 -14.500  -0.4020   0.18486   0.17872  -0.0213  1.0000  0.0573  -1.3564   0.0000   0.0000   0.0000   0.1824
 -14.000  -0.3875   0.17887   0.17277  -0.0218  1.0000  0.0596  -1.3229   0.0000   0.0000   0.0000   0.1793
 -13.500  -0.3760   0.17344   0.16736  -0.0229  1.0000  0.0625  -1.3255   0.0000   0.0000   0.0000   0.1750
 -13.000  -0.3701   0.16926   0.16325  -0.0250  1.0000  0.0652  -1.3868   0.0000   0.0000   0.0000   0.1689
 -12.500  -0.3780   0.16812   0.16222  -0.0282  1.0000  0.0658  -1.5230   0.0000   0.0000   0.0000   0.1629
 -12.000  -0.3480   0.15683   0.15095  -0.0257  1.0000  0.0681  -1.3669   0.0000   0.0000   0.0000   0.1630
 -11.500  -0.3376   0.15135   0.14554  -0.0258  1.0000  0.0714  -1.3450   0.0000   0.0000   0.0000   0.1608
 -11.000  -0.3365   0.14739   0.14167  -0.0273  1.0000  0.0750  -1.4036   0.0000   0.0000   0.0000   0.1568
 -10.500  -0.3424   0.14374   0.13816  -0.0289  1.0000  0.0761  -1.4928   0.0000   0.0000   0.0000   0.1544
 -10.000  -0.3187   0.13532   0.12978  -0.0263  1.0000  0.0793  -1.3610   0.0000   0.0000   0.0000   0.1562
  -9.750  -0.2715   0.13295   0.12790  -0.0267  1.0000  0.0859  -1.2257   0.0000   0.0000   0.0000   0.1430
  -9.500  -0.3155   0.13072   0.12527  -0.0261  1.0000  0.0845  -1.3658   0.0000   0.0000   0.0000   0.1565
  -9.250  -0.2624   0.12648   0.12148  -0.0248  1.0000  0.0893  -1.1756   0.0000   0.0000   0.0000   0.1472
  -9.000  -0.3421   0.13009   0.12482  -0.0285  1.0000  0.0864  -1.5400   0.0000   0.0000   0.0000   0.1578
  -8.750  -0.2628   0.12191   0.11701  -0.0236  1.0000  0.0948  -1.1715   0.0000   0.0000   0.0000   0.1526
  -8.500  -0.3091   0.12070   0.11542  -0.0242  1.0000  0.0930  -1.3454   0.0000   0.0000   0.0000   0.1624
  -8.250  -0.2925   0.12018   0.11543  -0.0244  1.0000  0.0970  -1.3176   0.0000   0.0000   0.0000   0.1602
  -8.000  -0.3316   0.11890   0.11380  -0.0247  1.0000  0.0968  -1.4637   0.0000   0.0000   0.0000   0.1675
  -7.500  -0.3183   0.11184   0.10683  -0.0217  1.0000  0.0994  -1.4110   0.0000   0.0000   0.0000   0.1741
  -7.250  -0.3166   0.10953   0.10457  -0.0202  1.0000  0.1016  -1.4001   0.0000   0.0000   0.0000   0.1786
  -7.000  -0.3205   0.10766   0.10278  -0.0190  1.0000  0.1040  -1.4134   0.0000   0.0000   0.0000   0.1835
  -6.750  -0.3336   0.10662   0.10183  -0.0180  1.0000  0.1064  -1.4611   0.0000   0.0000   0.0000   0.1896
  -6.500  -0.3588   0.10667   0.10199  -0.0164  1.0000  0.1073  -1.5409   0.0000   0.0000   0.0000   0.1987
  -6.000  -0.3614   0.10125   0.09671  -0.0127  1.0000  0.1094  -1.5314   0.0000   0.0000   0.0000   0.2098
  -5.750  -0.3596   0.09890   0.09441  -0.0107  1.0000  0.1114  -1.5070   0.0000   0.0000   0.0000   0.2154
  -5.500  -0.3630   0.09690   0.09247  -0.0097  1.0000  0.1139  -1.5112   0.0000   0.0000   0.0000   0.2187
  -5.250  -0.3704   0.09498   0.09063  -0.0113  1.0000  0.1172  -1.5580   0.0000   0.0000   0.0000   0.2151
  -5.000  -0.3739   0.09196   0.08768  -0.0177  1.0000  0.1191  -1.6487   0.0000   0.0000   0.0000   0.1986
  -4.750  -0.3702   0.08934   0.08510  -0.0132  1.0000  0.1205  -1.5899   0.0000   0.0000   0.0000   0.2104
  -4.500  -0.3663   0.08694   0.08275  -0.0121  1.0000  0.1230  -1.5639   0.0000   0.0000   0.0000   0.2133
  -4.000  -0.3471   0.07992   0.07576  -0.0220  1.0000  0.1309  -1.6187   0.0000   0.0000   0.0000   0.1830
  -3.500  -0.2048   0.04824   0.04302  -0.0748  1.0000  0.0762  -2.3165   0.0000   0.0000   0.0000  -0.1229
  -3.250  -0.1196   0.03697   0.03060  -0.0942  1.0000  0.0769  -2.4780   0.0000   0.0000   0.0000  -0.5511
  -3.000  -0.0727   0.03361   0.02658  -0.1002  1.0000  0.0855  -2.4288   0.0000   0.0000   0.0000  -1.1502
  -2.750  -0.0407   0.03220   0.02497  -0.1023  1.0000  0.0917  -2.3258   0.0000   0.0000   0.0000  -2.2975
  -2.500   0.0013   0.03009   0.02207  -0.1061  1.0000  0.0980  -2.2745   0.0000   0.0000   0.0000  83.5740
  -2.250   0.0513   0.03002   0.02187  -0.1108  0.9932  0.1104  -2.0799   0.0000   0.0000   0.0000   2.4327
  -2.000   0.1015   0.03036   0.02204  -0.1154  0.9848  0.1300  -1.8699   0.0000   0.0000   0.0000   1.3981
  -1.750   0.1488   0.03020   0.02191  -0.1194  0.9765  0.1455  -1.6791   0.0000   0.0000   0.0000   1.0587
  -1.500   0.1994   0.02950   0.02094  -0.1237  0.9692  0.1629  -1.5175   0.0000   0.0000   0.0000   0.8740
  -1.250   0.2455   0.02921   0.02070  -0.1272  0.9603  0.1878  -1.3377   0.0000   0.0000   0.0000   0.7705
  -1.000   0.2907   0.02905   0.02059  -0.1305  0.9506  0.2208  -1.1570   0.0000   0.0000   0.0000   0.7005
  -0.750   0.3369   0.02874   0.02036  -0.1338  0.9412  0.2550  -1.0056   0.0000   0.0000   0.0000   0.6480
  -0.500   0.3821   0.02836   0.02005  -0.1369  0.9311  0.2909  -0.9035   0.0000   0.0000   0.0000   0.6084
  -0.250   0.4269   0.02794   0.01975  -0.1397  0.9208  0.3310  -0.7996   0.0000   0.0000   0.0000   0.5769
   0.000   0.4716   0.02744   0.01942  -0.1424  0.9104  0.3780  -0.7039   0.0000   0.0000   0.0000   0.5512
   0.250   0.5161   0.02687   0.01908  -0.1450  0.8998  0.4384  -0.7247   0.0000   0.0000   0.0000   0.5296
   0.500   0.5600   0.02617   0.01869  -0.1471  0.8893  0.5227  -0.7690   0.0000   0.0000   0.0000   0.5111
   0.750   0.6004   0.02518   0.01825  -0.1481  0.8787  0.6609  -0.8132   0.0000   0.0000   0.0000   0.4948
   1.000   0.6193   0.02397   0.01755  -0.1447  0.8633  1.0000  -0.8416   0.0000   0.0000   0.0000   0.4813
   1.250   0.6665   0.02345   0.01676  -0.1473  0.8514  1.0000  -0.8936   0.0000   0.0000   0.0000   0.4684
   1.500   0.7128   0.02277   0.01592  -0.1494  0.8398  1.0000  -0.9495   0.0000   0.0000   0.0000   0.4566
   1.750   0.7593   0.02193   0.01496  -0.1513  0.8285  1.0000  -1.0090   0.0000   0.0000   0.0000   0.4460
   2.000   0.8071   0.02102   0.01396  -0.1534  0.8169  1.0000  -1.0708   0.0000   0.0000   0.0000   0.4365
   2.250   0.8583   0.02002   0.01290  -0.1560  0.8045  1.0000  -1.1401   0.0000   0.0000   0.0000   0.4279
   2.500   0.9042   0.01928   0.01210  -0.1578  0.7872  1.0000  -1.2061   0.0000   0.0000   0.0000   0.4204
   2.750   0.9566   0.01851   0.01124  -0.1608  0.7680  1.0000  -1.2828   0.0000   0.0000   0.0000   0.4137
   3.000   1.0009   0.01805   0.01071  -0.1625  0.7431  1.0000  -1.3542   0.0000   0.0000   0.0000   0.4076
   3.250   1.0452   0.01776   0.01027  -0.1642  0.7155  1.0000  -1.4289   0.0000   0.0000   0.0000   0.4021
   3.500   1.0814   0.01779   0.01012  -0.1646  0.6844  1.0000  -1.4952   0.0000   0.0000   0.0000   0.3969
   3.750   1.1128   0.01801   0.01018  -0.1643  0.6521  1.0000  -1.5604   0.0000   0.0000   0.0000   0.3920
   4.000   1.1412   0.01836   0.01033  -0.1635  0.6198  1.0000  -1.6233   0.0000   0.0000   0.0000   0.3873
   4.250   1.1672   0.01881   0.01058  -0.1623  0.5881  1.0000  -1.6841   0.0000   0.0000   0.0000   0.3828
   4.500   1.1915   0.01934   0.01092  -0.1609  0.5575  1.0000  -1.7478   0.0000   0.0000   0.0000   0.3785
   4.750   1.2157   0.01992   0.01129  -0.1596  0.5288  1.0000  -1.8117   0.0000   0.0000   0.0000   0.3743
   5.000   1.2381   0.02056   0.01181  -0.1580  0.5012  1.0000  -1.8734   0.0000   0.0000   0.0000   0.3703
   5.250   1.2616   0.02124   0.01229  -0.1566  0.4760  1.0000  -1.9370   0.0000   0.0000   0.0000   0.3666
   5.500   1.2834   0.02194   0.01287  -0.1550  0.4519  1.0000  -1.9983   0.0000   0.0000   0.0000   0.3629
   5.750   1.3052   0.02268   0.01348  -0.1535  0.4292  1.0000  -2.0776   0.0000   0.0000   0.0000   0.3593
   6.000   1.3276   0.02345   0.01411  -0.1521  0.4082  1.0000  -2.1645   0.0000   0.0000   0.0000   0.3559
   6.250   1.3500   0.02426   0.01479  -0.1507  0.3886  1.0000  -2.2524   0.0000   0.0000   0.0000   0.3527
   6.500   1.3707   0.02507   0.01557  -0.1491  0.3697  1.0000  -2.3371   0.0000   0.0000   0.0000   0.3494
   6.750   1.3930   0.02594   0.01634  -0.1477  0.3527  1.0000  -2.4259   0.0000   0.0000   0.0000   0.3464
   7.000   1.4145   0.02681   0.01727  -0.1463  0.3364  1.0000  -2.5135   0.0000   0.0000   0.0000   0.3434
   7.250   1.4377   0.02775   0.01810  -0.1451  0.3217  1.0000  -2.6057   0.0000   0.0000   0.0000   0.3406
   7.500   1.4578   0.02870   0.01910  -0.1435  0.3073  1.0000  -2.6908   0.0000   0.0000   0.0000   0.3377
   7.750   1.4791   0.02968   0.02008  -0.1420  0.2940  1.0000  -2.7794   0.0000   0.0000   0.0000   0.3349
   8.000   1.5008   0.03070   0.02108  -0.1407  0.2816  1.0000  -2.8693   0.0000   0.0000   0.0000   0.3323
   8.250   1.5222   0.03175   0.02213  -0.1394  0.2700  1.0000  -2.9592   0.0000   0.0000   0.0000   0.3297
   8.500   1.5429   0.03284   0.02325  -0.1379  0.2590  1.0000  -3.0934   0.0000   0.0000   0.0000   0.3271
   8.750   1.5628   0.03399   0.02445  -0.1363  0.2486  1.0000  -3.2311   0.0000   0.0000   0.0000   0.3246
   9.000   1.5806   0.03510   0.02563  -0.1345  0.2382  1.0000  -3.3659   0.0000   0.0000   0.0000   0.3220
   9.250   1.5959   0.03614   0.02680  -0.1322  0.2278  1.0000  -3.4966   0.0000   0.0000   0.0000   0.3194
   9.500   1.6087   0.03712   0.02785  -0.1296  0.2176  1.0000  -3.6229   0.0000   0.0000   0.0000   0.3167
   9.750   1.6194   0.03808   0.02888  -0.1267  0.2077  1.0000  -3.7449   0.0000   0.0000   0.0000   0.3139
  10.000   1.6291   0.03905   0.02993  -0.1237  0.1984  1.0000  -3.8651   0.0000   0.0000   0.0000   0.3112
  10.250   1.6381   0.03999   0.03090  -0.1206  0.1898  1.0000  -3.9857   0.0000   0.0000   0.0000   0.3085
  10.500   1.6498   0.04092   0.03179  -0.1180  0.1817  1.0000  -4.1177   0.0000   0.0000   0.0000   0.3059
  10.750   1.6504   0.04233   0.03350  -0.1138  0.1749  1.0000  -4.2017   0.0000   0.0000   0.0000   0.3030
  11.000   1.6603   0.04367   0.03490  -0.1112  0.1684  1.0000  -4.3370   0.0000   0.0000   0.0000   0.3006
  11.250   1.6669   0.04506   0.03643  -0.1082  0.1622  1.0000  -4.4618   0.0000   0.0000   0.0000   0.2981
  11.500   1.6719   0.04684   0.03845  -0.1051  0.1566  1.0000  -4.5753   0.0000   0.0000   0.0000   0.2956
  11.750   1.6807   0.04838   0.04008  -0.1027  0.1511  1.0000  -4.7094   0.0000   0.0000   0.0000   0.2934
  12.000   1.6810   0.05051   0.04246  -0.0994  0.1462  1.0000  -4.8018   0.0000   0.0000   0.0000   0.2910
  12.250   1.6844   0.05240   0.04451  -0.0967  0.1412  1.0000  -4.9115   0.0000   0.0000   0.0000   0.2888
  12.500   1.6864   0.05466   0.04693  -0.0940  0.1368  1.0000  -5.0117   0.0000   0.0000   0.0000   0.2867
  12.750   1.6782   0.05739   0.04997  -0.0907  0.1327  1.0000  -5.0649   0.0000   0.0000   0.0000   0.2845
  13.000   1.6884   0.05910   0.05164  -0.0891  0.1276  1.0000  -5.2096   0.0000   0.0000   0.0000   0.2827
  13.250   1.6670   0.06288   0.05585  -0.0857  0.1246  1.0000  -5.1988   0.0000   0.0000   0.0000   0.2809
  13.500   1.6612   0.06559   0.05871  -0.0836  0.1204  1.0000  -5.2673   0.0000   0.0000   0.0000   0.2794
  13.750   1.6579   0.06843   0.06164  -0.0820  0.1164  1.0000  -5.3451   0.0000   0.0000   0.0000   0.2780
  14.000   1.6327   0.07346   0.06706  -0.0805  0.1142  1.0000  -5.3050   0.0000   0.0000   0.0000   0.2774
  14.250   1.6134   0.07835   0.07223  -0.0799  0.1118  1.0000  -5.2905   0.0000   0.0000   0.0000   0.2771
  14.500   1.6283   0.07985   0.07364  -0.0790  0.1070  1.0000  -5.4532   0.0000   0.0000   0.0000   0.2755
  14.750   1.5945   0.08680   0.08099  -0.0798  0.1062  1.0000  -5.3527   0.0000   0.0000   0.0000   0.2765
  15.000   1.5582   0.09485   0.08939  -0.0822  0.1057  1.0000  -5.2283   0.0000   0.0000   0.0000   0.2787
  15.500   1.4679   0.11705   0.11213  -0.0938  0.1064  1.0000  -4.8213   0.0000   0.0000   0.0000   0.2891
  17.000   1.2381   0.21349   0.20864  -0.1591  0.1073  1.0000  -2.7320   0.0000   0.0000   0.0000   0.3543
  18.500   0.9370   0.24594   0.24203  -0.1555  0.1250  1.0000  -1.3510   0.0000   0.0000   0.0000   0.3933
  19.000   0.9600   0.25489   0.25110  -0.1552  0.1178  1.0000  -1.4239   0.0000   0.0000   0.0000   0.3879
  19.500   0.9449   0.26197   0.25822  -0.1613  0.1121  1.0000  -1.2649   0.0000   0.0000   0.0000   0.3964
  20.000   0.9654   0.27070   0.26703  -0.1613  0.1076  1.0000  -1.3377   0.0000   0.0000   0.0000   0.3916


