xflr5 v6.61

 Calculated polar for: E63_12_00

 1 1 Reynolds number fixed          Mach number fixed         

 xtrf =   1.000 (top)        1.000 (bottom)
 Mach =   0.200     Re =     0.060 e 6     Ncrit =   7.000

  alpha     CL        CD       CDp       Cm    Top Xtr Bot Xtr   Cpmin    Chinge    XCp    
 ------- -------- --------- --------- -------- ------- ------- -------- --------- ---------
 -30.000  -0.4877   0.29939   0.29279   0.0193  1.0000  0.0392  -0.8495   0.0000   0.0000   0.0000   0.2669
 -29.500  -0.4810   0.29480   0.28816   0.0170  1.0000  0.0404  -0.8323   0.0000   0.0000   0.0000   0.2633
 -29.000  -0.4744   0.29032   0.28364   0.0147  1.0000  0.0417  -0.8168   0.0000   0.0000   0.0000   0.2595
 -28.500  -0.4677   0.28592   0.27921   0.0124  1.0000  0.0432  -0.8210   0.0000   0.0000   0.0000   0.2555
 -28.000  -0.4612   0.28185   0.27508   0.0099  1.0000  0.0449  -0.8334   0.0000   0.0000   0.0000   0.2511
 -27.500  -0.4555   0.27855   0.27174   0.0073  1.0000  0.0456  -0.8549   0.0000   0.0000   0.0000   0.2461
 -27.000  -0.4510   0.27615   0.26931   0.0047  1.0000  0.0459  -0.8805   0.0000   0.0000   0.0000   0.2408
 -26.500  -0.4456   0.27275   0.26590   0.0023  1.0000  0.0462  -0.8918   0.0000   0.0000   0.0000   0.2360
 -26.000  -0.4336   0.26448   0.25762   0.0010  1.0000  0.0471  -0.8507   0.0000   0.0000   0.0000   0.2336
 -25.500  -0.4249   0.25966   0.25275  -0.0008  1.0000  0.0484  -0.8400   0.0000   0.0000   0.0000   0.2298
 -25.000  -0.4168   0.25533   0.24840  -0.0026  1.0000  0.0498  -0.8384   0.0000   0.0000   0.0000   0.2256
 -24.500  -0.4088   0.25115   0.24420  -0.0046  1.0000  0.0513  -0.8407   0.0000   0.0000   0.0000   0.2212
 -24.000  -0.4010   0.24710   0.24013  -0.0065  1.0000  0.0529  -0.8464   0.0000   0.0000   0.0000   0.2164
 -23.500  -0.3940   0.24348   0.23649  -0.0085  1.0000  0.0546  -0.8615   0.0000   0.0000   0.0000   0.2111
 -23.000  -0.3894   0.24142   0.23442  -0.0109  1.0000  0.0556  -0.8986   0.0000   0.0000   0.0000   0.2049
 -22.500  -0.3849   0.23890   0.23192  -0.0131  1.0000  0.0560  -0.9260   0.0000   0.0000   0.0000   0.1992
 -22.000  -0.3708   0.23114   0.22413  -0.0138  1.0000  0.0574  -0.8661   0.0000   0.0000   0.0000   0.1962
 -21.500  -0.3615   0.22679   0.21977  -0.0151  1.0000  0.0592  -0.8546   0.0000   0.0000   0.0000   0.1918
 -21.000  -0.3531   0.22287   0.21584  -0.0165  1.0000  0.0612  -0.8647   0.0000   0.0000   0.0000   0.1869
 -20.500  -0.3454   0.21919   0.21217  -0.0180  1.0000  0.0633  -0.8843   0.0000   0.0000   0.0000   0.1816
 -20.000  -0.3396   0.21623   0.20921  -0.0198  1.0000  0.0650  -0.9218   0.0000   0.0000   0.0000   0.1756
 -19.500  -0.3371   0.21478   0.20776  -0.0218  1.0000  0.0657  -0.9807   0.0000   0.0000   0.0000   0.1693
 -19.000  -0.3267   0.20916   0.20217  -0.0226  1.0000  0.0665  -0.9743   0.0000   0.0000   0.0000   0.1647
 -18.500  -0.3153   0.20409   0.19709  -0.0231  1.0000  0.0686  -0.9464   0.0000   0.0000   0.0000   0.1606
 -18.000  -0.3071   0.20041   0.19342  -0.0240  1.0000  0.0712  -0.9467   0.0000   0.0000   0.0000   0.1558
 -17.500  -0.3013   0.19733   0.19036  -0.0251  1.0000  0.0739  -0.9669   0.0000   0.0000   0.0000   0.1504
 -17.000  -0.3032   0.19709   0.19013  -0.0271  1.0000  0.0756  -1.0382   0.0000   0.0000   0.0000   0.1447
 -16.500  -0.2890   0.19037   0.18346  -0.0269  1.0000  0.0779  -0.9908   0.0000   0.0000   0.0000   0.1408
 -16.000  -0.2808   0.18675   0.17987  -0.0272  1.0000  0.0819  -0.9755   0.0000   0.0000   0.0000   0.1369
 -15.500  -0.2792   0.18480   0.17793  -0.0283  1.0000  0.0854  -1.0082   0.0000   0.0000   0.0000   0.1326
 -15.000  -0.2861   0.18516   0.17831  -0.0300  1.0000  0.0864  -1.0856   0.0000   0.0000   0.0000   0.1294
 -14.500  -0.2678   0.17716   0.17034  -0.0290  1.0000  0.0887  -1.0119   0.0000   0.0000   0.0000   0.1256
 -14.000  -0.2610   0.17312   0.16632  -0.0289  1.0000  0.0922  -1.0178   0.0000   0.0000   0.0000   0.1229
 -13.500  -0.2607   0.16995   0.16319  -0.0296  1.0000  0.0958  -1.0641   0.0000   0.0000   0.0000   0.1206
 -13.000  -0.2711   0.16846   0.16174  -0.0310  1.0000  0.0971  -1.1632   0.0000   0.0000   0.0000   0.1203
 -12.500  -0.2521   0.16066   0.15401  -0.0295  1.0000  0.0998  -1.1018   0.0000   0.0000   0.0000   0.1174
 -12.000  -0.2470   0.15608   0.14948  -0.0291  1.0000  0.1037  -1.1073   0.0000   0.0000   0.0000   0.1168
 -11.500  -0.2538   0.15278   0.14625  -0.0298  1.0000  0.1072  -1.1762   0.0000   0.0000   0.0000   0.1180
 -11.000  -0.2488   0.14704   0.14061  -0.0291  1.0000  0.1091  -1.1820   0.0000   0.0000   0.0000   0.1187
 -10.500  -0.2406   0.14169   0.13533  -0.0277  1.0000  0.1133  -1.1590   0.0000   0.0000   0.0000   0.1207
 -10.000  -0.2485   0.13777   0.13151  -0.0278  1.0000  0.1179  -1.2171   0.0000   0.0000   0.0000   0.1254
  -9.500  -0.2494   0.13237   0.12623  -0.0268  1.0000  0.1198  -1.2407   0.0000   0.0000   0.0000   0.1303
  -9.000  -0.2429   0.12702   0.12093  -0.0247  1.0000  0.1250  -1.2168   0.0000   0.0000   0.0000   0.1365
  -8.500  -0.2613   0.12336   0.11741  -0.0244  1.0000  0.1291  -1.3037   0.0000   0.0000   0.0000   0.1464
  -8.000  -0.2549   0.11728   0.11146  -0.0218  1.0000  0.1327  -1.2825   0.0000   0.0000   0.0000   0.1549
  -7.500  -0.2688   0.11320   0.10752  -0.0200  1.0000  0.1391  -1.3343   0.0000   0.0000   0.0000   0.1669
  -7.000  -0.2759   0.10870   0.10317  -0.0172  1.0000  0.1491  -1.3552   0.0000   0.0000   0.0000   0.1801
  -6.500  -0.3634   0.10279   0.09695  -0.0192  1.0000  0.1085  -1.8215   0.0000   0.0000   0.0000   0.1889
  -6.000  -0.3766   0.09726   0.09155  -0.0175  1.0000  0.1063  -1.9203   0.0000   0.0000   0.0000   0.1962
  -4.000  -0.3213   0.06817   0.06248  -0.0427  0.9944  0.1237  -2.1157   0.0000   0.0000   0.0000   0.1108
  -3.500  -0.1978   0.05077   0.04410  -0.0774  0.9835  0.1250  -2.1565   0.0000   0.0000   0.0000  -0.1516
  -3.000  -0.0704   0.03959   0.03135  -0.1013  0.9741  0.1319  -2.0147   0.0000   0.0000   0.0000  -1.2148
  -2.500   0.0261   0.03677   0.02779  -0.1111  0.9591  0.1529  -1.7109   0.0000   0.0000   0.0000   4.5778
  -2.000   0.1162   0.03539   0.02605  -0.1184  0.9416  0.1834  -1.4948   0.0000   0.0000   0.0000   1.2801
  -1.500   0.2005   0.03427   0.02472  -0.1240  0.9219  0.2177  -1.3059   0.0000   0.0000   0.0000   0.8726
  -1.000   0.2828   0.03332   0.02377  -0.1285  0.9009  0.2553  -1.1256   0.0000   0.0000   0.0000   0.7062
  -0.500   0.3660   0.03230   0.02276  -0.1328  0.8790  0.3004  -0.9531   0.0000   0.0000   0.0000   0.6129
   0.000   0.4440   0.03136   0.02192  -0.1357  0.8547  0.3571  -0.7837   0.0000   0.0000   0.0000   0.5546
   0.500   0.5217   0.03025   0.02101  -0.1380  0.8298  0.4296  -0.8363   0.0000   0.0000   0.0000   0.5125
   1.000   0.6024   0.02862   0.01985  -0.1399  0.8061  0.5486  -0.9266   0.0000   0.0000   0.0000   0.4794
   1.500   0.6667   0.02617   0.01831  -0.1371  0.7826  0.7976  -1.0118   0.0000   0.0000   0.0000   0.4521
   2.000   0.7470   0.02478   0.01656  -0.1389  0.7518  1.0000  -1.1148   0.0000   0.0000   0.0000   0.4317
   2.500   0.8372   0.02377   0.01519  -0.1423  0.7183  1.0000  -1.2424   0.0000   0.0000   0.0000   0.4151
   3.000   0.9196   0.02332   0.01441  -0.1447  0.6770  1.0000  -1.3649   0.0000   0.0000   0.0000   0.4019
   3.500   0.9936   0.02335   0.01410  -0.1459  0.6311  1.0000  -1.4844   0.0000   0.0000   0.0000   0.3907
   4.000   1.0580   0.02389   0.01426  -0.1457  0.5842  1.0000  -1.6039   0.0000   0.0000   0.0000   0.3809
   4.500   1.1131   0.02481   0.01490  -0.1442  0.5391  1.0000  -1.7178   0.0000   0.0000   0.0000   0.3721
   5.000   1.1665   0.02593   0.01570  -0.1427  0.4978  1.0000  -1.8329   0.0000   0.0000   0.0000   0.3642
   5.500   1.2130   0.02729   0.01691  -0.1401  0.4596  1.0000  -1.9467   0.0000   0.0000   0.0000   0.3567
   6.000   1.2597   0.02875   0.01817  -0.1378  0.4254  1.0000  -2.0641   0.0000   0.0000   0.0000   0.3499
   6.500   1.3048   0.03036   0.01963  -0.1352  0.3947  1.0000  -2.1885   0.0000   0.0000   0.0000   0.3434
   7.000   1.3500   0.03206   0.02118  -0.1328  0.3672  1.0000  -2.3148   0.0000   0.0000   0.0000   0.3374
   7.500   1.3920   0.03399   0.02318  -0.1300  0.3428  1.0000  -2.4358   0.0000   0.0000   0.0000   0.3317
   8.000   1.4327   0.03607   0.02527  -0.1272  0.3209  1.0000  -2.5787   0.0000   0.0000   0.0000   0.3263
   8.500   1.4726   0.03824   0.02744  -0.1243  0.3010  1.0000  -2.7451   0.0000   0.0000   0.0000   0.3212
   9.000   1.5009   0.04086   0.03029  -0.1199  0.2832  1.0000  -2.8873   0.0000   0.0000   0.0000   0.3159
   9.500   1.5406   0.04335   0.03278  -0.1172  0.2677  1.0000  -3.0571   0.0000   0.0000   0.0000   0.3113
  10.000   1.5566   0.04654   0.03641  -0.1115  0.2538  1.0000  -3.1740   0.0000   0.0000   0.0000   0.3061
  10.500   1.5708   0.04994   0.04009  -0.1059  0.2416  1.0000  -3.2879   0.0000   0.0000   0.0000   0.3011
  11.000   1.5782   0.05381   0.04427  -0.1000  0.2310  1.0000  -3.3853   0.0000   0.0000   0.0000   0.2962
  11.500   1.5771   0.05817   0.04895  -0.0939  0.2214  1.0000  -3.4629   0.0000   0.0000   0.0000   0.2916
  12.000   1.5804   0.06283   0.05387  -0.0891  0.2129  1.0000  -3.5474   0.0000   0.0000   0.0000   0.2875
  12.500   1.4924   0.07435   0.06613  -0.0820  0.2088  1.0000  -3.3905   0.0000   0.0000   0.0000   0.2853
  13.000   1.4675   0.08296   0.07501  -0.0803  0.2024  1.0000  -3.3880   0.0000   0.0000   0.0000   0.2842
  13.500   1.1287   0.15147   0.14392  -0.1178  0.1955  1.0000  -2.1651   0.0000   0.0000   0.0000   0.3350
  14.500   1.1373   0.16941   0.16199  -0.1253  0.1810  1.0000  -2.1416   0.0000   0.0000   0.0000   0.3393
  15.000   1.1208   0.18257   0.17522  -0.1338  0.1749  1.0000  -2.0016   0.0000   0.0000   0.0000   0.3481
  15.500   1.1278   0.19066   0.18337  -0.1380  0.1672  1.0000  -2.0110   0.0000   0.0000   0.0000   0.3503
  16.000   1.1283   0.20071   0.19349  -0.1442  0.1655  1.0000  -1.9851   0.0000   0.0000   0.0000   0.3550
  16.500   1.1439   0.20742   0.20026  -0.1472  0.1584  1.0000  -2.0598   0.0000   0.0000   0.0000   0.3550
  17.000   1.1459   0.21620   0.20917  -0.1535  0.1547  1.0000  -2.0334   0.0000   0.0000   0.0000   0.3594
  18.500   0.8809   0.23555   0.23002  -0.1421  0.1843  1.0000  -1.2506   0.0000   0.0000   0.0000   0.3887
  19.000   0.8856   0.24215   0.23677  -0.1448  0.1776  1.0000  -1.2546   0.0000   0.0000   0.0000   0.3901
  19.500   0.8969   0.24914   0.24387  -0.1465  0.1699  1.0000  -1.2853   0.0000   0.0000   0.0000   0.3890
  20.000   0.9023   0.25571   0.25056  -0.1491  0.1616  1.0000  -1.2747   0.0000   0.0000   0.0000   0.3899


