xflr5 v6.61

 Calculated polar for: E63_4_27

 1 1 Reynolds number fixed          Mach number fixed         

 xtrf =   1.000 (top)        1.000 (bottom)
 Mach =   0.200     Re =     0.090 e 6     Ncrit =   7.000

  alpha     CL        CD       CDp       Cm    Top Xtr Bot Xtr   Cpmin    Chinge    XCp    
 ------- -------- --------- --------- -------- ------- ------- -------- --------- ---------
 -13.500  -0.4569   0.17383   0.16793  -0.0133  1.0000  0.0233  -1.3268   0.0000   0.0000   0.0000   0.2179
 -13.000  -0.4449   0.16794   0.16208  -0.0145  1.0000  0.0245  -1.3120   0.0000   0.0000   0.0000   0.2144
 -12.500  -0.4334   0.16230   0.15648  -0.0158  1.0000  0.0257  -1.3138   0.0000   0.0000   0.0000   0.2107
 -12.000  -0.4225   0.15700   0.15122  -0.0172  1.0000  0.0270  -1.3305   0.0000   0.0000   0.0000   0.2065
 -11.500  -0.4137   0.15298   0.14726  -0.0191  1.0000  0.0278  -1.3823   0.0000   0.0000   0.0000   0.2012
 -11.000  -0.4093   0.15028   0.14465  -0.0212  1.0000  0.0282  -1.4542   0.0000   0.0000   0.0000   0.1958
 -10.500  -0.4078   0.14777   0.14223  -0.0231  1.0000  0.0283  -1.5230   0.0000   0.0000   0.0000   0.1913
 -10.000  -0.3846   0.13471   0.12918  -0.0206  1.0000  0.0300  -1.3068   0.0000   0.0000   0.0000   0.1941
  -9.500  -0.3757   0.12916   0.12370  -0.0206  1.0000  0.0315  -1.2585   0.0000   0.0000   0.0000   0.1928
  -9.000  -0.3681   0.12401   0.11857  -0.0207  1.0000  0.0331  -1.2283   0.0000   0.0000   0.0000   0.1915
  -8.500  -0.3620   0.11918   0.11383  -0.0207  1.0000  0.0348  -1.2088   0.0000   0.0000   0.0000   0.1907
  -8.000  -0.3589   0.11514   0.10989  -0.0207  1.0000  0.0363  -1.2526   0.0000   0.0000   0.0000   0.1904
  -7.500  -0.3632   0.11261   0.10751  -0.0203  1.0000  0.0370  -1.3373   0.0000   0.0000   0.0000   0.1923
  -7.000  -0.3757   0.11089   0.10596  -0.0187  1.0000  0.0373  -1.4298   0.0000   0.0000   0.0000   0.1989
  -6.500  -0.3621   0.10218   0.09731  -0.0154  1.0000  0.0394  -1.3130   0.0000   0.0000   0.0000   0.2060
  -6.000  -0.3623   0.09790   0.09316  -0.0137  1.0000  0.0421  -1.3072   0.0000   0.0000   0.0000   0.2109
  -5.500  -0.3561   0.09392   0.08931  -0.0163  1.0000  0.0451  -1.3699   0.0000   0.0000   0.0000   0.2030
  -4.500  -0.3276   0.08227   0.07783  -0.0202  1.0000  0.0502  -1.3563   0.0000   0.0000   0.0000   0.1870
  -3.500  -0.2513   0.06894   0.06448  -0.0367  1.0000  0.0595  -1.3734   0.0000   0.0000   0.0000   0.1020
  -3.000  -0.1823   0.06105   0.05649  -0.0514  1.0000  0.0683  -1.3755   0.0000   0.0000   0.0000  -0.0348
  -2.500  -0.0984   0.05322   0.04847  -0.0672  1.0000  0.0837  -1.3284   0.0000   0.0000   0.0000  -0.4383
  -2.000   0.0076   0.04510   0.04003  -0.0864  1.0000  0.1101  -1.2354   0.0000   0.0000   0.0000  11.6518
  -1.000   0.2914   0.02762   0.02000  -0.1265  1.0000  0.0445  -1.4158   0.0000   0.0000   0.0000   0.6850
  -0.500   0.3823   0.02417   0.01556  -0.1330  1.0000  0.0416  -1.4519   0.0000   0.0000   0.0000   0.5983
   0.000   0.4565   0.02257   0.01362  -0.1366  1.0000  0.0579  -1.3685   0.0000   0.0000   0.0000   0.5489
   0.500   0.5301   0.01993   0.01289  -0.1399  1.0000  1.0000  -1.2064   0.0000   0.0000   0.0000   0.5132
   1.000   0.6135   0.02097   0.01328  -0.1461  0.9826  1.0000  -0.5635   0.0000   0.0000   0.0000   0.4869
   1.500   0.6958   0.02154   0.01358  -0.1518  0.9635  1.0000  -0.6427   0.0000   0.0000   0.0000   0.4665
   2.000   0.7787   0.02166   0.01362  -0.1570  0.9426  1.0000  -0.7480   0.0000   0.0000   0.0000   0.4496
   2.500   0.8598   0.02137   0.01345  -0.1614  0.9190  1.0000  -0.8738   0.0000   0.0000   0.0000   0.4351
   3.000   0.9395   0.02064   0.01295  -0.1646  0.8914  1.0000  -1.0471   0.0000   0.0000   0.0000   0.4222
   3.500   1.0196   0.01935   0.01209  -0.1669  0.8598  1.0000  -1.4045   0.0000   0.0000   0.0000   0.4101
   4.000   1.1016   0.01777   0.01094  -0.1685  0.8115  1.0000  -1.9757   0.0000   0.0000   0.0000   0.3989
   4.500   1.2019   0.01643   0.00973  -0.1726  0.6739  1.0000  -2.6761   0.0000   0.0000   0.0000   0.3889
   5.000   1.2461   0.01876   0.01071  -0.1680  0.3996  1.0000  -3.1351   0.0000   0.0000   0.0000   0.3795
   5.500   1.2711   0.02267   0.01314  -0.1624  0.1503  1.0000  -3.5140   0.0000   0.0000   0.0000   0.3718
   6.000   1.2975   0.02762   0.01743  -0.1565  0.0543  1.0000  -3.7432   0.0000   0.0000   0.0000   0.3641
   6.500   1.3313   0.03150   0.02155  -0.1517  0.0411  1.0000  -4.2409   0.0000   0.0000   0.0000   0.3568
   7.000   1.3789   0.03719   0.02751  -0.1491  0.0369  1.0000  -4.9121   0.0000   0.0000   0.0000   0.3503
   7.500   1.4312   0.04455   0.03599  -0.1464  0.0353  1.0000  -5.4319   0.0000   0.0000   0.0000   0.3439
   8.000   1.4575   0.05180   0.04432  -0.1410  0.0315  1.0000  -5.8186   0.0000   0.0000   0.0000   0.3378
   8.500   1.4640   0.06076   0.05436  -0.1338  0.0309  1.0000  -5.9387   0.0000   0.0000   0.0000   0.3319
   9.000   1.4451   0.07053   0.06518  -0.1251  0.0316  1.0000  -5.8049   0.0000   0.0000   0.0000   0.3265
   9.500   1.4066   0.07936   0.07469  -0.1164  0.0323  1.0000  -5.6333   0.0000   0.0000   0.0000   0.3222
  10.000   1.3623   0.08936   0.08521  -0.1120  0.0330  1.0000  -5.4413   0.0000   0.0000   0.0000   0.3211
  10.500   1.3169   0.10188   0.09812  -0.1145  0.0336  1.0000  -5.1968   0.0000   0.0000   0.0000   0.3251
  11.000   1.2761   0.11830   0.11481  -0.1248  0.0344  1.0000  -4.8525   0.0000   0.0000   0.0000   0.3354
  11.500   1.2506   0.13817   0.13472  -0.1390  0.0357  1.0000  -4.4071   0.0000   0.0000   0.0000   0.3484
  12.000   1.2430   0.15358   0.15009  -0.1477  0.0371  1.0000  -4.1757   0.0000   0.0000   0.0000   0.3556
  12.500   1.2327   0.17344   0.16973  -0.1612  0.0431  1.0000  -3.5246   0.0000   0.0000   0.0000   0.3673
  13.000   1.2337   0.19373   0.18997  -0.1733  0.0833  1.0000  -2.8408   0.0000   0.0000   0.0000   0.3768
  13.500   1.2412   0.20417   0.20039  -0.1798  0.0813  1.0000  -2.7827   0.0000   0.0000   0.0000   0.3805
  14.000   1.2584   0.21365   0.21000  -0.1829  0.0778  1.0000  -2.8525   0.0000   0.0000   0.0000   0.3802
  14.500   1.2666   0.22376   0.22006  -0.1898  0.0753  1.0000  -2.7572   0.0000   0.0000   0.0000   0.3841
  15.000   1.2756   0.23198   0.22826  -0.1967  0.0693  1.0000  -2.6808   0.0000   0.0000   0.0000   0.3877
  15.500   1.2896   0.24107   0.23733  -0.2017  0.0649  1.0000  -2.6442   0.0000   0.0000   0.0000   0.3891
  16.000   1.3170   0.25252   0.24883  -0.2013  0.0567  1.0000  -2.9246   0.0000   0.0000   0.0000   0.3847
  16.500   1.3169   0.25756   0.25379  -0.2134  0.0547  1.0000  -2.6471   0.0000   0.0000   0.0000   0.3932
  17.000   1.3323   0.26541   0.26164  -0.2190  0.0498  1.0000  -2.6632   0.0000   0.0000   0.0000   0.3946
  17.500   1.3562   0.27722   0.27348  -0.2201  0.0471  1.0000  -2.8390   0.0000   0.0000   0.0000   0.3916
  18.000   1.3634   0.28172   0.27792  -0.2305  0.0448  1.0000  -2.6225   0.0000   0.0000   0.0000   0.3976
  18.500   1.3804   0.28914   0.28535  -0.2353  0.0398  1.0000  -2.6735   0.0000   0.0000   0.0000   0.3980
  19.000   1.3995   0.29925   0.29545  -0.2385  0.0376  1.0000  -2.7587   0.0000   0.0000   0.0000   0.3970
  19.500   1.4122   0.30443   0.30060  -0.2473  0.0353  1.0000  -2.5912   0.0000   0.0000   0.0000   0.4008
  20.000   1.4289   0.31162   0.30780  -0.2528  0.0321  1.0000  -2.5750   0.0000   0.0000   0.0000   0.4016


