xflr5 v6.61

 Calculated polar for: E63_10_00

 1 1 Reynolds number fixed          Mach number fixed         

 xtrf =   1.000 (top)        1.000 (bottom)
 Mach =   0.200     Re =     0.125 e 6     Ncrit =   9.000

  alpha     CL        CD       CDp       Cm    Top Xtr Bot Xtr   Cpmin    Chinge    XCp    
 ------- -------- --------- --------- -------- ------- ------- -------- --------- ---------
 -20.000  -0.5551   0.24427   0.23871   0.0028  1.0000  0.0318  -1.3810   0.0000   0.0000   0.0000   0.2363
 -19.500  -0.5398   0.23886   0.23332   0.0002  1.0000  0.0329  -1.3625   0.0000   0.0000   0.0000   0.2321
 -19.000  -0.5247   0.23342   0.22790  -0.0023  1.0000  0.0341  -1.3473   0.0000   0.0000   0.0000   0.2277
 -18.500  -0.5099   0.22798   0.22249  -0.0048  1.0000  0.0354  -1.3381   0.0000   0.0000   0.0000   0.2230
 -18.000  -0.4958   0.22296   0.21749  -0.0077  1.0000  0.0366  -1.3499   0.0000   0.0000   0.0000   0.2174
 -17.500  -0.4845   0.21913   0.21367  -0.0110  1.0000  0.0371  -1.3910   0.0000   0.0000   0.0000   0.2106
 -17.000  -0.4764   0.21618   0.21076  -0.0144  1.0000  0.0373  -1.4418   0.0000   0.0000   0.0000   0.2037
 -16.500  -0.4601   0.20795   0.20258  -0.0157  1.0000  0.0377  -1.4328   0.0000   0.0000   0.0000   0.2000
 -16.000  -0.4408   0.19984   0.19449  -0.0157  1.0000  0.0388  -1.3380   0.0000   0.0000   0.0000   0.1987
 -15.500  -0.4263   0.19418   0.18886  -0.0168  1.0000  0.0402  -1.3115   0.0000   0.0000   0.0000   0.1951
 -15.000  -0.4131   0.18865   0.18338  -0.0182  1.0000  0.0421  -1.3117   0.0000   0.0000   0.0000   0.1908
 -14.500  -0.4021   0.18360   0.17837  -0.0203  1.0000  0.0450  -1.3590   0.0000   0.0000   0.0000   0.1848
 -14.000  -0.4045   0.18232   0.17716  -0.0243  1.0000  0.0460  -1.5276   0.0000   0.0000   0.0000   0.1760
 -13.500  -0.3843   0.17247   0.16734  -0.0237  1.0000  0.0469  -1.4592   0.0000   0.0000   0.0000   0.1743
 -13.000  -0.3688   0.16604   0.16094  -0.0234  1.0000  0.0485  -1.3899   0.0000   0.0000   0.0000   0.1729
 -12.500  -0.3576   0.16055   0.15550  -0.0238  1.0000  0.0506  -1.3724   0.0000   0.0000   0.0000   0.1700
 -12.000  -0.3487   0.15518   0.15018  -0.0246  1.0000  0.0533  -1.3839   0.0000   0.0000   0.0000   0.1664
 -11.500  -0.3497   0.15152   0.14660  -0.0270  1.0000  0.0554  -1.4927   0.0000   0.0000   0.0000   0.1605
 -11.000  -0.3624   0.14939   0.14458  -0.0298  1.0000  0.0558  -1.6492   0.0000   0.0000   0.0000   0.1566
 -10.500  -0.3303   0.13863   0.13385  -0.0262  1.0000  0.0576  -1.4478   0.0000   0.0000   0.0000   0.1591
 -10.000  -0.3213   0.13335   0.12864  -0.0253  1.0000  0.0601  -1.4029   0.0000   0.0000   0.0000   0.1599
  -9.750  -0.2707   0.13017   0.12588  -0.0254  1.0000  0.0648  -1.2547   0.0000   0.0000   0.0000   0.1477
  -9.500  -0.3180   0.12846   0.12383  -0.0252  1.0000  0.0635  -1.4134   0.0000   0.0000   0.0000   0.1602
  -9.250  -0.2953   0.12759   0.12342  -0.0271  1.0000  0.0658  -1.4301   0.0000   0.0000   0.0000   0.1506
  -9.000  -0.3367   0.12600   0.12151  -0.0273  1.0000  0.0656  -1.5797   0.0000   0.0000   0.0000   0.1597
  -8.750  -0.2708   0.11936   0.11522  -0.0231  1.0000  0.0678  -1.2658   0.0000   0.0000   0.0000   0.1571
  -8.500  -0.3252   0.11875   0.11434  -0.0250  1.0000  0.0669  -1.5141   0.0000   0.0000   0.0000   0.1641
  -8.250  -0.2692   0.11471   0.11065  -0.0211  1.0000  0.0715  -1.2314   0.0000   0.0000   0.0000   0.1646
  -8.000  -0.3164   0.11367   0.10931  -0.0223  1.0000  0.0697  -1.4314   0.0000   0.0000   0.0000   0.1709
  -7.750  -0.2925   0.11163   0.10770  -0.0214  1.0000  0.0753  -1.3584   0.0000   0.0000   0.0000   0.1710
  -7.500  -0.3268   0.11014   0.10590  -0.0212  1.0000  0.0744  -1.4776   0.0000   0.0000   0.0000   0.1773
  -7.250  -0.2859   0.10551   0.10167  -0.0180  1.0000  0.0781  -1.3100   0.0000   0.0000   0.0000   0.1814
  -7.000  -0.3694   0.10912   0.10507  -0.0200  1.0000  0.0756  -1.6746   0.0000   0.0000   0.0000   0.1896
  -6.750  -0.2905   0.10142   0.09768  -0.0152  1.0000  0.0821  -1.3053   0.0000   0.0000   0.0000   0.1928
  -6.500  -0.3401   0.10173   0.09774  -0.0153  1.0000  0.0803  -1.5008   0.0000   0.0000   0.0000   0.1988
  -6.250  -0.3178   0.09839   0.09479  -0.0132  1.0000  0.0854  -1.4059   0.0000   0.0000   0.0000   0.2044
  -6.000  -0.3619   0.09894   0.09509  -0.0112  1.0000  0.0836  -1.5493   0.0000   0.0000   0.0000   0.2137
  -5.750  -0.3640   0.09608   0.09264  -0.0143  1.0000  0.0864  -1.6090   0.0000   0.0000   0.0000   0.2072
  -5.250  -0.3859   0.09153   0.08788  -0.0167  1.0000  0.0871  -1.7462   0.0000   0.0000   0.0000   0.2024
  -5.000  -0.3827   0.08924   0.08563  -0.0133  1.0000  0.0881  -1.6887   0.0000   0.0000   0.0000   0.2111
  -4.750  -0.3795   0.08699   0.08341  -0.0121  1.0000  0.0896  -1.6576   0.0000   0.0000   0.0000   0.2141
  -4.500  -0.3467   0.08267   0.07906  -0.0205  0.9940  0.0940  -1.6378   0.0000   0.0000   0.0000   0.1865
  -4.250  -0.2993   0.07534   0.07167  -0.0383  0.9861  0.0984  -1.7037   0.0000   0.0000   0.0000   0.1173
  -4.000  -0.2216   0.05590   0.05177  -0.0702  0.9823  0.0651  -2.1924   0.0000   0.0000   0.0000  -0.0743
  -3.750  -0.0998   0.03172   0.02535  -0.1077  0.9896  0.0555  -2.8232   0.0000   0.0000   0.0000  -0.8493
  -3.500  -0.0486   0.02930   0.02259  -0.1135  0.9861  0.0609  -2.6783   0.0000   0.0000   0.0000  -2.1243
  -3.250   0.0017   0.02737   0.02011  -0.1184  0.9818  0.0694  -2.5363   0.0000   0.0000   0.0000  70.4172
  -3.000   0.0506   0.02608   0.01830  -0.1224  0.9778  0.0764  -2.4109   0.0000   0.0000   0.0000   2.7031
  -2.750   0.0941   0.02545   0.01759  -0.1255  0.9716  0.0834  -2.2371   0.0000   0.0000   0.0000   1.6006
  -2.500   0.1362   0.02505   0.01712  -0.1283  0.9645  0.0930  -2.0536   0.0000   0.0000   0.0000   1.2023
  -2.250   0.1797   0.02463   0.01664  -0.1312  0.9580  0.1043  -1.8697   0.0000   0.0000   0.0000   0.9867
  -2.000   0.2250   0.02433   0.01634  -0.1344  0.9519  0.1217  -1.6746   0.0000   0.0000   0.0000   0.8520
  -1.750   0.2650   0.02425   0.01628  -0.1367  0.9434  0.1461  -1.4844   0.0000   0.0000   0.0000   0.7694
  -1.500   0.3060   0.02403   0.01606  -0.1391  0.9352  0.1735  -1.3037   0.0000   0.0000   0.0000   0.7069
  -1.250   0.3489   0.02373   0.01588  -0.1418  0.9278  0.2016  -1.1184   0.0000   0.0000   0.0000   0.6577
  -1.000   0.3951   0.02333   0.01556  -0.1449  0.9212  0.2345  -0.9925   0.0000   0.0000   0.0000   0.6174
  -0.750   0.4349   0.02287   0.01519  -0.1467  0.9121  0.2649  -0.8904   0.0000   0.0000   0.0000   0.5876
  -0.500   0.4748   0.02236   0.01481  -0.1485  0.9032  0.2983  -0.7892   0.0000   0.0000   0.0000   0.5626
  -0.250   0.5160   0.02180   0.01439  -0.1505  0.8948  0.3385  -0.7079   0.0000   0.0000   0.0000   0.5409
   0.250   0.6042   0.02026   0.01335  -0.1550  0.8797  0.4584  -0.7970   0.0000   0.0000   0.0000   0.5052
   0.500   0.6445   0.01939   0.01286  -0.1563  0.8703  0.5540  -0.8416   0.0000   0.0000   0.0000   0.4908
   0.750   0.6808   0.01832   0.01228  -0.1564  0.8613  0.7058  -0.8847   0.0000   0.0000   0.0000   0.4776
   1.000   0.7080   0.01705   0.01133  -0.1542  0.8510  1.0000  -0.9230   0.0000   0.0000   0.0000   0.4654
   1.250   0.7527   0.01639   0.01052  -0.1563  0.8411  1.0000  -0.9781   0.0000   0.0000   0.0000   0.4549
   1.500   0.7973   0.01576   0.00976  -0.1583  0.8296  1.0000  -1.0361   0.0000   0.0000   0.0000   0.4456
   1.750   0.8444   0.01513   0.00903  -0.1608  0.8164  1.0000  -1.0970   0.0000   0.0000   0.0000   0.4372
   2.000   0.8903   0.01465   0.00846  -0.1632  0.7991  1.0000  -1.1609   0.0000   0.0000   0.0000   0.4297
   2.250   0.9366   0.01430   0.00799  -0.1658  0.7778  1.0000  -1.2270   0.0000   0.0000   0.0000   0.4231
   2.500   0.9784   0.01412   0.00768  -0.1675  0.7519  1.0000  -1.2926   0.0000   0.0000   0.0000   0.4170
   2.750   1.0157   0.01413   0.00753  -0.1684  0.7227  1.0000  -1.3557   0.0000   0.0000   0.0000   0.4113
   3.000   1.0495   0.01427   0.00748  -0.1687  0.6918  1.0000  -1.4186   0.0000   0.0000   0.0000   0.4060
   3.250   1.0789   0.01454   0.00754  -0.1682  0.6596  1.0000  -1.4774   0.0000   0.0000   0.0000   0.4008
   3.500   1.1054   0.01489   0.00769  -0.1672  0.6274  1.0000  -1.5351   0.0000   0.0000   0.0000   0.3959
   3.750   1.1300   0.01532   0.00791  -0.1659  0.5955  1.0000  -1.5937   0.0000   0.0000   0.0000   0.3911
   4.000   1.1528   0.01579   0.00818  -0.1643  0.5644  1.0000  -1.6504   0.0000   0.0000   0.0000   0.3865
   4.250   1.1746   0.01629   0.00850  -0.1626  0.5344  1.0000  -1.7093   0.0000   0.0000   0.0000   0.3821
   4.500   1.1964   0.01683   0.00886  -0.1610  0.5068  1.0000  -1.7704   0.0000   0.0000   0.0000   0.3778
   4.750   1.2175   0.01739   0.00926  -0.1592  0.4802  1.0000  -1.8308   0.0000   0.0000   0.0000   0.3737
   5.000   1.2387   0.01798   0.00973  -0.1575  0.4556  1.0000  -1.8918   0.0000   0.0000   0.0000   0.3698
   5.250   1.2596   0.01859   0.01019  -0.1558  0.4324  1.0000  -1.9530   0.0000   0.0000   0.0000   0.3660
   5.500   1.2805   0.01922   0.01068  -0.1541  0.4105  1.0000  -2.0142   0.0000   0.0000   0.0000   0.3624
   5.750   1.3012   0.01986   0.01122  -0.1525  0.3898  1.0000  -2.0949   0.0000   0.0000   0.0000   0.3588
   6.000   1.3218   0.02052   0.01178  -0.1508  0.3703  1.0000  -2.1800   0.0000   0.0000   0.0000   0.3554
   6.250   1.3427   0.02121   0.01236  -0.1492  0.3527  1.0000  -2.2666   0.0000   0.0000   0.0000   0.3521
   6.500   1.3633   0.02190   0.01298  -0.1476  0.3358  1.0000  -2.3534   0.0000   0.0000   0.0000   0.3489
   6.750   1.3843   0.02264   0.01363  -0.1461  0.3204  1.0000  -2.4414   0.0000   0.0000   0.0000   0.3458
   7.000   1.4046   0.02337   0.01442  -0.1444  0.3054  1.0000  -2.5289   0.0000   0.0000   0.0000   0.3427
   7.250   1.4253   0.02413   0.01512  -0.1429  0.2918  1.0000  -2.6180   0.0000   0.0000   0.0000   0.3398
   7.500   1.4462   0.02493   0.01584  -0.1414  0.2792  1.0000  -2.7087   0.0000   0.0000   0.0000   0.3369
   7.750   1.4644   0.02568   0.01660  -0.1395  0.2663  1.0000  -2.7947   0.0000   0.0000   0.0000   0.3340
   8.000   1.4805   0.02640   0.01733  -0.1372  0.2536  1.0000  -2.8779   0.0000   0.0000   0.0000   0.3310
   8.250   1.4951   0.02712   0.01805  -0.1346  0.2416  1.0000  -2.9595   0.0000   0.0000   0.0000   0.3281
   8.500   1.5095   0.02787   0.01881  -0.1321  0.2304  1.0000  -3.0558   0.0000   0.0000   0.0000   0.3252
   8.750   1.5241   0.02866   0.01962  -0.1297  0.2201  1.0000  -3.1830   0.0000   0.0000   0.0000   0.3223
   9.000   1.5383   0.02949   0.02046  -0.1272  0.2105  1.0000  -3.3108   0.0000   0.0000   0.0000   0.3196
   9.250   1.5529   0.03036   0.02132  -0.1249  0.2018  1.0000  -3.4415   0.0000   0.0000   0.0000   0.3169
   9.500   1.5658   0.03123   0.02230  -0.1224  0.1932  1.0000  -3.5683   0.0000   0.0000   0.0000   0.3142
   9.750   1.5769   0.03215   0.02334  -0.1196  0.1847  1.0000  -3.6899   0.0000   0.0000   0.0000   0.3115
  10.000   1.5884   0.03314   0.02441  -0.1170  0.1770  1.0000  -3.8143   0.0000   0.0000   0.0000   0.3088
  10.250   1.6003   0.03417   0.02543  -0.1145  0.1701  1.0000  -3.9431   0.0000   0.0000   0.0000   0.3063
  10.500   1.6103   0.03528   0.02669  -0.1118  0.1631  1.0000  -4.0631   0.0000   0.0000   0.0000   0.3038
  10.750   1.6217   0.03649   0.02800  -0.1095  0.1571  1.0000  -4.1961   0.0000   0.0000   0.0000   0.3014
  11.000   1.6325   0.03772   0.02931  -0.1071  0.1513  1.0000  -4.3389   0.0000   0.0000   0.0000   0.2991
  11.250   1.6419   0.03913   0.03087  -0.1047  0.1456  1.0000  -4.4749   0.0000   0.0000   0.0000   0.2968
  11.500   1.6512   0.04049   0.03232  -0.1023  0.1404  1.0000  -4.6150   0.0000   0.0000   0.0000   0.2945
  11.750   1.6583   0.04211   0.03413  -0.0999  0.1352  1.0000  -4.7425   0.0000   0.0000   0.0000   0.2923
  12.000   1.6654   0.04368   0.03578  -0.0975  0.1303  1.0000  -4.8740   0.0000   0.0000   0.0000   0.2902
  12.250   1.6708   0.04552   0.03779  -0.0952  0.1256  1.0000  -4.9956   0.0000   0.0000   0.0000   0.2881
  12.500   1.6743   0.04740   0.03983  -0.0928  0.1207  1.0000  -5.1106   0.0000   0.0000   0.0000   0.2861
  12.750   1.6777   0.04940   0.04192  -0.0907  0.1163  1.0000  -5.2272   0.0000   0.0000   0.0000   0.2842
  13.000   1.6756   0.05178   0.04453  -0.0884  0.1115  1.0000  -5.3156   0.0000   0.0000   0.0000   0.2825
  13.250   1.6788   0.05387   0.04658  -0.0867  0.1072  1.0000  -5.4359   0.0000   0.0000   0.0000   0.2808
  13.500   1.6722   0.05697   0.05005  -0.0848  0.1029  1.0000  -5.4947   0.0000   0.0000   0.0000   0.2794
  13.750   1.6711   0.05964   0.05285  -0.0834  0.0990  1.0000  -5.5871   0.0000   0.0000   0.0000   0.2780
  14.000   1.6676   0.06280   0.05615  -0.0822  0.0954  1.0000  -5.6621   0.0000   0.0000   0.0000   0.2769
  14.250   1.6582   0.06663   0.06026  -0.0813  0.0917  1.0000  -5.7031   0.0000   0.0000   0.0000   0.2761
  14.500   1.6550   0.06977   0.06343  -0.0808  0.0880  1.0000  -5.7850   0.0000   0.0000   0.0000   0.2753
  14.750   1.6453   0.07411   0.06800  -0.0806  0.0850  1.0000  -5.8172   0.0000   0.0000   0.0000   0.2750
  15.000   1.6321   0.07911   0.07328  -0.0811  0.0820  1.0000  -5.8249   0.0000   0.0000   0.0000   0.2751
  15.500   1.6196   0.08753   0.08185  -0.0823  0.0760  1.0000  -5.9196   0.0000   0.0000   0.0000   0.2751
  16.000   1.5802   0.10118   0.09613  -0.0875  0.0720  1.0000  -5.8165   0.0000   0.0000   0.0000   0.2785
  16.500   1.5714   0.11001   0.10499  -0.0906  0.0663  1.0000  -5.8943   0.0000   0.0000   0.0000   0.2796
  17.000   1.5177   0.12854   0.12413  -0.1018  0.0649  1.0000  -5.6257   0.0000   0.0000   0.0000   0.2881
  17.500   1.4406   0.15457   0.15068  -0.1207  0.0654  1.0000  -5.0989   0.0000   0.0000   0.0000   0.3042
  18.000   1.2681   0.22055   0.21655  -0.1680  0.0649  1.0000  -2.9875   0.0000   0.0000   0.0000   0.3557
  18.500   1.2626   0.23651   0.23248  -0.1784  0.0642  1.0000  -2.6425   0.0000   0.0000   0.0000   0.3641
  19.000   1.2798   0.24503   0.24106  -0.1817  0.0670  1.0000  -2.6258   0.0000   0.0000   0.0000   0.3638
  19.500   0.9612   0.26100   0.25787  -0.1624  0.0885  1.0000  -1.3548   0.0000   0.0000   0.0000   0.3942
  20.000   0.9649   0.26982   0.26673  -0.1655  0.0857  1.0000  -1.3110   0.0000   0.0000   0.0000   0.3958


