xflr5 v6.61

 Calculated polar for: E63_7_00

 1 1 Reynolds number fixed          Mach number fixed         

 xtrf =   1.000 (top)        1.000 (bottom)
 Mach =   0.200     Re =     0.100 e 6     Ncrit =   9.000

  alpha     CL        CD       CDp       Cm    Top Xtr Bot Xtr   Cpmin    Chinge    XCp    
 ------- -------- --------- --------- -------- ------- ------- -------- --------- ---------
 -17.500  -0.5259   0.21994   0.21404  -0.0044  1.0000  0.0291  -1.3543   0.0000   0.0000   0.0000   0.2321
 -17.000  -0.5107   0.21334   0.20743  -0.0059  1.0000  0.0301  -1.2806   0.0000   0.0000   0.0000   0.2291
 -16.500  -0.4962   0.20755   0.20166  -0.0078  1.0000  0.0313  -1.2511   0.0000   0.0000   0.0000   0.2253
 -16.000  -0.4822   0.20190   0.19604  -0.0097  1.0000  0.0329  -1.2480   0.0000   0.0000   0.0000   0.2212
 -15.500  -0.4686   0.19635   0.19052  -0.0117  1.0000  0.0348  -1.2598   0.0000   0.0000   0.0000   0.2167
 -15.000  -0.4560   0.19138   0.18559  -0.0140  1.0000  0.0365  -1.3037   0.0000   0.0000   0.0000   0.2112
 -14.500  -0.4474   0.18815   0.18241  -0.0169  1.0000  0.0371  -1.3904   0.0000   0.0000   0.0000   0.2044
 -14.000  -0.4436   0.18603   0.18035  -0.0198  1.0000  0.0374  -1.4909   0.0000   0.0000   0.0000   0.1979
 -13.500  -0.4202   0.17387   0.16818  -0.0186  1.0000  0.0386  -1.3571   0.0000   0.0000   0.0000   0.1982
 -13.000  -0.4074   0.16778   0.16214  -0.0193  1.0000  0.0403  -1.3215   0.0000   0.0000   0.0000   0.1954
 -12.500  -0.3962   0.16219   0.15658  -0.0202  1.0000  0.0422  -1.3138   0.0000   0.0000   0.0000   0.1918
 -12.000  -0.3863   0.15689   0.15133  -0.0214  1.0000  0.0442  -1.3263   0.0000   0.0000   0.0000   0.1876
 -11.500  -0.3815   0.15334   0.14786  -0.0235  1.0000  0.0456  -1.3957   0.0000   0.0000   0.0000   0.1818
 -11.000  -0.3849   0.15156   0.14619  -0.0260  1.0000  0.0460  -1.5004   0.0000   0.0000   0.0000   0.1766
 -10.500  -0.3619   0.14052   0.13518  -0.0239  1.0000  0.0475  -1.3542   0.0000   0.0000   0.0000   0.1777
 -10.000  -0.3516   0.13470   0.12942  -0.0235  1.0000  0.0497  -1.2970   0.0000   0.0000   0.0000   0.1773
  -9.750  -0.3478   0.13209   0.12685  -0.0234  1.0000  0.0509  -1.2843   0.0000   0.0000   0.0000   0.1768
  -9.500  -0.3446   0.12957   0.12437  -0.0235  1.0000  0.0522  -1.2786   0.0000   0.0000   0.0000   0.1762
  -9.250  -0.3424   0.12723   0.12207  -0.0236  1.0000  0.0536  -1.2826   0.0000   0.0000   0.0000   0.1755
  -9.000  -0.3425   0.12545   0.12034  -0.0240  1.0000  0.0548  -1.3084   0.0000   0.0000   0.0000   0.1745
  -8.500  -0.3535   0.12378   0.11882  -0.0253  1.0000  0.0557  -1.4154   0.0000   0.0000   0.0000   0.1738
  -8.250  -0.3613   0.12305   0.11818  -0.0255  1.0000  0.0558  -1.4714   0.0000   0.0000   0.0000   0.1751
  -8.000  -0.3392   0.11556   0.11064  -0.0230  1.0000  0.0571  -1.3380   0.0000   0.0000   0.0000   0.1775
  -7.750  -0.3343   0.11260   0.10771  -0.0218  1.0000  0.0584  -1.3068   0.0000   0.0000   0.0000   0.1802
  -7.500  -0.3329   0.11027   0.10543  -0.0209  1.0000  0.0599  -1.3016   0.0000   0.0000   0.0000   0.1829
  -7.250  -0.3334   0.10818   0.10339  -0.0200  1.0000  0.0615  -1.3091   0.0000   0.0000   0.0000   0.1858
  -7.000  -0.3366   0.10638   0.10167  -0.0191  1.0000  0.0632  -1.3304   0.0000   0.0000   0.0000   0.1893
  -6.750  -0.3450   0.10527   0.10064  -0.0181  1.0000  0.0646  -1.3750   0.0000   0.0000   0.0000   0.1939
  -6.500  -0.3593   0.10484   0.10031  -0.0166  1.0000  0.0652  -1.4351   0.0000   0.0000   0.0000   0.2006
  -5.750  -0.3590   0.09698   0.09264  -0.0126  1.0000  0.0691  -1.4146   0.0000   0.0000   0.0000   0.2121
  -5.500  -0.3589   0.09483   0.09054  -0.0121  1.0000  0.0716  -1.4158   0.0000   0.0000   0.0000   0.2135
  -4.750  -0.3498   0.08697   0.08285  -0.0175  1.0000  0.0775  -1.5030   0.0000   0.0000   0.0000   0.1975
  -4.500  -0.3445   0.08436   0.08028  -0.0163  1.0000  0.0800  -1.4700   0.0000   0.0000   0.0000   0.2002
  -4.250  -0.3332   0.08146   0.07740  -0.0198  1.0000  0.0840  -1.4860   0.0000   0.0000   0.0000   0.1884
  -4.000  -0.3085   0.07721   0.07315  -0.0299  1.0000  0.0874  -1.5617   0.0000   0.0000   0.0000   0.1507
  -3.750  -0.3041   0.07467   0.07066  -0.0268  1.0000  0.0897  -1.5049   0.0000   0.0000   0.0000   0.1596
  -3.500  -0.2589   0.06968   0.06556  -0.0421  1.0000  0.0977  -1.5799   0.0000   0.0000   0.0000   0.0849
  -3.000  -0.2117   0.06261   0.05840  -0.0494  1.0000  0.1090  -1.5312   0.0000   0.0000   0.0000   0.0138
  -2.750  -0.1974   0.06015   0.05598  -0.0487  1.0000  0.1135  -1.4708   0.0000   0.0000   0.0000   0.0001
  -2.500  -0.1304   0.05472   0.05029  -0.0654  1.0000  0.1302  -1.4851   0.0000   0.0000   0.0000  -0.2562
  -2.250  -0.1166   0.05246   0.04811  -0.0639  1.0000  0.1344  -1.4107   0.0000   0.0000   0.0000  -0.3032
  -1.750   0.1114   0.03244   0.02599  -0.1094  1.0000  0.0737  -1.7888   0.0000   0.0000   0.0000   1.2366
  -1.500   0.1783   0.02828   0.02076  -0.1173  1.0000  0.0676  -1.7993   0.0000   0.0000   0.0000   0.9107
  -1.250   0.2195   0.02672   0.01874  -0.1200  1.0000  0.0694  -1.7428   0.0000   0.0000   0.0000   0.7987
  -1.000   0.2570   0.02570   0.01731  -0.1217  1.0000  0.0752  -1.6939   0.0000   0.0000   0.0000   0.7250
  -0.750   0.2951   0.02485   0.01647  -0.1238  0.9994  0.0932  -1.6120   0.0000   0.0000   0.0000   0.6702
  -0.500   0.3473   0.02442   0.01613  -0.1285  0.9939  0.1433  -1.4375   0.0000   0.0000   0.0000   0.6202
  -0.250   0.3990   0.02436   0.01640  -0.1334  0.9880  0.2468  -1.1917   0.0000   0.0000   0.0000   0.5843
   0.000   0.4472   0.02414   0.01668  -0.1377  0.9802  0.3963  -0.9436   0.0000   0.0000   0.0000   0.5576
   0.250   0.4871   0.02330   0.01691  -0.1395  0.9729  0.7147  -0.7669   0.0000   0.0000   0.0000   0.5357
   0.500   0.5248   0.02303   0.01662  -0.1410  0.9610  1.0000  -0.6053   0.0000   0.0000   0.0000   0.5177
   0.750   0.5675   0.02317   0.01651  -0.1439  0.9488  1.0000  -0.6445   0.0000   0.0000   0.0000   0.5023
   1.000   0.6112   0.02324   0.01640  -0.1468  0.9371  1.0000  -0.6873   0.0000   0.0000   0.0000   0.4886
   1.250   0.6550   0.02321   0.01623  -0.1496  0.9256  1.0000  -0.7319   0.0000   0.0000   0.0000   0.4765
   1.500   0.6993   0.02304   0.01596  -0.1523  0.9139  1.0000  -0.7798   0.0000   0.0000   0.0000   0.4656
   1.750   0.7444   0.02272   0.01558  -0.1549  0.9022  1.0000  -0.8350   0.0000   0.0000   0.0000   0.4557
   2.000   0.7900   0.02225   0.01508  -0.1574  0.8906  1.0000  -0.8964   0.0000   0.0000   0.0000   0.4466
   2.250   0.8356   0.02165   0.01447  -0.1597  0.8791  1.0000  -0.9611   0.0000   0.0000   0.0000   0.4382
   2.500   0.8815   0.02089   0.01375  -0.1618  0.8677  1.0000  -1.0276   0.0000   0.0000   0.0000   0.4304
   2.750   0.9196   0.02023   0.01314  -0.1625  0.8523  1.0000  -1.0935   0.0000   0.0000   0.0000   0.4233
   3.000   0.9656   0.01923   0.01220  -0.1642  0.8389  1.0000  -1.1724   0.0000   0.0000   0.0000   0.4164
   3.250   1.0166   0.01811   0.01117  -0.1668  0.8245  1.0000  -1.2649   0.0000   0.0000   0.0000   0.4101
   3.500   1.0641   0.01726   0.01038  -0.1689  0.8033  1.0000  -1.3552   0.0000   0.0000   0.0000   0.4045
   3.750   1.1076   0.01667   0.00981  -0.1703  0.7741  1.0000  -1.4615   0.0000   0.0000   0.0000   0.3993
   4.000   1.1529   0.01622   0.00935  -0.1721  0.7373  1.0000  -1.5868   0.0000   0.0000   0.0000   0.3945
   4.250   1.1898   0.01620   0.00920  -0.1725  0.6927  1.0000  -1.6993   0.0000   0.0000   0.0000   0.3899
   4.500   1.2199   0.01648   0.00930  -0.1718  0.6445  1.0000  -1.8012   0.0000   0.0000   0.0000   0.3854
   4.750   1.2460   0.01698   0.00956  -0.1705  0.5962  1.0000  -1.8972   0.0000   0.0000   0.0000   0.3810
   5.000   1.2679   0.01763   0.01005  -0.1685  0.5486  1.0000  -2.0443   0.0000   0.0000   0.0000   0.3768
   5.250   1.2883   0.01838   0.01058  -0.1664  0.5036  1.0000  -2.1910   0.0000   0.0000   0.0000   0.3727
   5.500   1.3075   0.01921   0.01118  -0.1642  0.4613  1.0000  -2.3367   0.0000   0.0000   0.0000   0.3688
   5.750   1.3261   0.02010   0.01186  -0.1619  0.4221  1.0000  -2.4831   0.0000   0.0000   0.0000   0.3650
   6.000   1.3431   0.02100   0.01257  -0.1595  0.3833  1.0000  -2.6521   0.0000   0.0000   0.0000   0.3613
   6.250   1.3592   0.02190   0.01329  -0.1570  0.3470  1.0000  -2.8217   0.0000   0.0000   0.0000   0.3577
   6.500   1.3751   0.02282   0.01406  -0.1545  0.3138  1.0000  -2.9935   0.0000   0.0000   0.0000   0.3543
   6.750   1.3914   0.02375   0.01490  -0.1522  0.2838  1.0000  -3.1684   0.0000   0.0000   0.0000   0.3509
   7.000   1.4075   0.02473   0.01588  -0.1499  0.2577  1.0000  -3.3455   0.0000   0.0000   0.0000   0.3477
   7.250   1.4235   0.02569   0.01682  -0.1475  0.2329  1.0000  -3.5231   0.0000   0.0000   0.0000   0.3445
   7.500   1.4395   0.02672   0.01783  -0.1453  0.2113  1.0000  -3.7018   0.0000   0.0000   0.0000   0.3414
   7.750   1.4556   0.02785   0.01895  -0.1431  0.1927  1.0000  -3.8800   0.0000   0.0000   0.0000   0.3384
   8.000   1.4710   0.02899   0.02017  -0.1407  0.1739  1.0000  -4.0528   0.0000   0.0000   0.0000   0.3354
   8.250   1.4831   0.03018   0.02140  -0.1379  0.1551  1.0000  -4.2124   0.0000   0.0000   0.0000   0.3324
   8.500   1.4930   0.03152   0.02275  -0.1348  0.1371  1.0000  -4.3580   0.0000   0.0000   0.0000   0.3293
   8.750   1.5010   0.03308   0.02432  -0.1314  0.1188  1.0000  -4.4845   0.0000   0.0000   0.0000   0.3262
   9.000   1.5075   0.03490   0.02619  -0.1279  0.1005  1.0000  -4.5864   0.0000   0.0000   0.0000   0.3232
   9.250   1.5132   0.03713   0.02833  -0.1246  0.0868  1.0000  -4.6716   0.0000   0.0000   0.0000   0.3202
   9.500   1.5227   0.03960   0.03088  -0.1216  0.0755  1.0000  -4.7393   0.0000   0.0000   0.0000   0.3174
   9.750   1.5357   0.04209   0.03353  -0.1192  0.0679  1.0000  -4.8204   0.0000   0.0000   0.0000   0.3148
  10.000   1.5504   0.04488   0.03658  -0.1172  0.0623  1.0000  -4.8978   0.0000   0.0000   0.0000   0.3123
  10.250   1.5607   0.04716   0.03890  -0.1149  0.0579  1.0000  -5.0509   0.0000   0.0000   0.0000   0.3100
  10.500   1.5703   0.05016   0.04221  -0.1125  0.0546  1.0000  -5.1632   0.0000   0.0000   0.0000   0.3076
  10.750   1.5778   0.05337   0.04582  -0.1099  0.0526  1.0000  -5.2526   0.0000   0.0000   0.0000   0.3052
  11.000   1.5816   0.05674   0.04952  -0.1072  0.0512  1.0000  -5.3302   0.0000   0.0000   0.0000   0.3030
  11.250   1.5809   0.06024   0.05335  -0.1043  0.0502  1.0000  -5.3916   0.0000   0.0000   0.0000   0.3008
  11.500   1.5763   0.06396   0.05737  -0.1014  0.0494  1.0000  -5.4366   0.0000   0.0000   0.0000   0.2988
  11.750   1.5682   0.06796   0.06167  -0.0988  0.0489  1.0000  -5.4630   0.0000   0.0000   0.0000   0.2970
  12.000   1.5563   0.07231   0.06633  -0.0964  0.0486  1.0000  -5.4669   0.0000   0.0000   0.0000   0.2956
  12.250   1.5404   0.07707   0.07141  -0.0946  0.0485  1.0000  -5.4465   0.0000   0.0000   0.0000   0.2946
  12.500   1.5207   0.08233   0.07699  -0.0935  0.0485  1.0000  -5.3999   0.0000   0.0000   0.0000   0.2943
  12.750   1.4970   0.08826   0.08325  -0.0936  0.0486  1.0000  -5.3229   0.0000   0.0000   0.0000   0.2949
  13.000   1.4690   0.09520   0.09052  -0.0953  0.0489  1.0000  -5.2081   0.0000   0.0000   0.0000   0.2968
  13.250   1.4323   0.10420   0.09988  -0.0996  0.0496  1.0000  -5.0157   0.0000   0.0000   0.0000   0.3011
  13.500   1.3880   0.11627   0.11229  -0.1078  0.0508  1.0000  -4.7309   0.0000   0.0000   0.0000   0.3090
  13.750   1.3415   0.13181   0.12806  -0.1199  0.0526  1.0000  -4.3570   0.0000   0.0000   0.0000   0.3205
  14.000   1.3026   0.14865   0.14495  -0.1326  0.0545  1.0000  -3.9443   0.0000   0.0000   0.0000   0.3330
  14.250   1.2828   0.16141   0.15769  -0.1411  0.0556  1.0000  -3.6598   0.0000   0.0000   0.0000   0.3411
  14.500   1.2751   0.17059   0.16678  -0.1464  0.0563  1.0000  -3.4978   0.0000   0.0000   0.0000   0.3458
  14.750   1.2739   0.17748   0.17366  -0.1500  0.0568  1.0000  -3.4202   0.0000   0.0000   0.0000   0.3484


