xflr5 v6.61

 Calculated polar for: E63_16_00

 1 1 Reynolds number fixed          Mach number fixed         

 xtrf =   1.000 (top)        1.000 (bottom)
 Mach =   0.200     Re =     0.100 e 6     Ncrit =   7.000

  alpha     CL        CD       CDp       Cm    Top Xtr Bot Xtr   Cpmin    Chinge    XCp    
 ------- -------- --------- --------- -------- ------- ------- -------- --------- ---------
 -29.000  -0.7337   0.32906   0.32230   0.0457  1.0000  0.0378  -1.6228   0.0000   0.0000   0.0000   0.2604
 -28.500  -0.7181   0.32338   0.31662   0.0428  1.0000  0.0385  -1.5606   0.0000   0.0000   0.0000   0.2586
 -28.000  -0.7031   0.31876   0.31200   0.0394  1.0000  0.0393  -1.5159   0.0000   0.0000   0.0000   0.2561
 -27.500  -0.6881   0.31426   0.30750   0.0359  1.0000  0.0405  -1.4900   0.0000   0.0000   0.0000   0.2532
 -27.000  -0.6732   0.30971   0.30294   0.0323  1.0000  0.0422  -1.4811   0.0000   0.0000   0.0000   0.2499
 -26.500  -0.6584   0.30505   0.29828   0.0286  1.0000  0.0439  -1.4853   0.0000   0.0000   0.0000   0.2462
 -26.000  -0.6442   0.30059   0.29382   0.0246  1.0000  0.0451  -1.5092   0.0000   0.0000   0.0000   0.2418
 -25.500  -0.6312   0.29701   0.29026   0.0203  1.0000  0.0457  -1.5508   0.0000   0.0000   0.0000   0.2365
 -25.000  -0.6198   0.29438   0.28763   0.0158  1.0000  0.0459  -1.5985   0.0000   0.0000   0.0000   0.2308
 -24.000  -0.5864   0.28076   0.27404   0.0105  1.0000  0.0467  -1.5405   0.0000   0.0000   0.0000   0.2244
 -23.500  -0.5687   0.27504   0.26835   0.0084  1.0000  0.0477  -1.4797   0.0000   0.0000   0.0000   0.2217
 -23.000  -0.5522   0.27009   0.26342   0.0058  1.0000  0.0491  -1.4405   0.0000   0.0000   0.0000   0.2181
 -22.500  -0.5362   0.26516   0.25851   0.0031  1.0000  0.0507  -1.4135   0.0000   0.0000   0.0000   0.2138
 -22.000  -0.5208   0.26014   0.25351   0.0002  1.0000  0.0528  -1.3972   0.0000   0.0000   0.0000   0.2091
 -21.500  -0.5071   0.25538   0.24878  -0.0032  1.0000  0.0549  -1.4109   0.0000   0.0000   0.0000   0.2029
 -21.000  -0.5010   0.25348   0.24689  -0.0080  1.0000  0.0558  -1.5237   0.0000   0.0000   0.0000   0.1941
 -20.500  -0.4809   0.24509   0.23855  -0.0093  1.0000  0.0565  -1.4753   0.0000   0.0000   0.0000   0.1909
 -20.000  -0.4618   0.23909   0.23257  -0.0104  1.0000  0.0577  -1.4136   0.0000   0.0000   0.0000   0.1878
 -19.500  -0.4455   0.23395   0.22747  -0.0123  1.0000  0.0593  -1.3854   0.0000   0.0000   0.0000   0.1832
 -19.000  -0.4302   0.22881   0.22237  -0.0143  1.0000  0.0612  -1.3715   0.0000   0.0000   0.0000   0.1778
 -18.500  -0.4164   0.22362   0.21722  -0.0165  1.0000  0.0636  -1.3745   0.0000   0.0000   0.0000   0.1717
 -18.000  -0.4071   0.21895   0.21259  -0.0196  1.0000  0.0653  -1.4265   0.0000   0.0000   0.0000   0.1637
 -17.500  -0.4017   0.21489   0.20856  -0.0229  1.0000  0.0657  -1.4966   0.0000   0.0000   0.0000   0.1558
 -17.000  -0.3851   0.20769   0.20142  -0.0239  1.0000  0.0663  -1.4680   0.0000   0.0000   0.0000   0.1509
 -16.500  -0.3649   0.20147   0.19525  -0.0238  1.0000  0.0678  -1.3854   0.0000   0.0000   0.0000   0.1475
 -16.000  -0.3503   0.19626   0.19009  -0.0246  1.0000  0.0703  -1.3526   0.0000   0.0000   0.0000   0.1426
 -15.500  -0.3415   0.19100   0.18489  -0.0265  1.0000  0.0744  -1.3793   0.0000   0.0000   0.0000   0.1359
 -15.000  -0.3471   0.18651   0.18047  -0.0301  1.0000  0.0757  -1.5500   0.0000   0.0000   0.0000   0.1284
 -14.500  -0.3221   0.17893   0.17295  -0.0285  1.0000  0.0780  -1.4720   0.0000   0.0000   0.0000   0.1259
 -14.000  -0.3181   0.17400   0.16808  -0.0299  1.0000  0.0857  -1.5596   0.0000   0.0000   0.0000   0.1212
 -13.500  -0.3075   0.16757   0.16168  -0.0299  1.0000  0.0884  -1.5888   0.0000   0.0000   0.0000   0.1183
 -12.500  -0.2196   0.15714   0.15198  -0.0277  1.0000  0.1020  -1.2765   0.0000   0.0000   0.0000   0.0948
 -12.000  -0.2355   0.15433   0.14920  -0.0288  1.0000  0.1074  -1.3641   0.0000   0.0000   0.0000   0.1009
 -11.500  -0.2191   0.14951   0.14446  -0.0260  1.0000  0.1113  -1.2608   0.0000   0.0000   0.0000   0.1044
 -11.000  -0.2208   0.14595   0.14096  -0.0249  1.0000  0.1165  -1.2506   0.0000   0.0000   0.0000   0.1116
 -10.500  -0.2470   0.14274   0.13780  -0.0259  1.0000  0.1185  -1.3589   0.0000   0.0000   0.0000   0.1227
 -10.000  -0.2419   0.13758   0.13274  -0.0237  1.0000  0.1194  -1.3106   0.0000   0.0000   0.0000   0.1303
  -9.500  -0.2333   0.13362   0.12886  -0.0207  1.0000  0.1214  -1.2306   0.0000   0.0000   0.0000   0.1405
  -9.000  -0.2160   0.12796   0.12320  -0.0237  0.9961  0.1251  -1.1788   0.0000   0.0000   0.0000   0.1190
  -8.000  -0.3419   0.11035   0.10530  -0.0256  0.9996  0.0967  -1.7549   0.0000   0.0000   0.0000   0.1568
  -7.500  -0.3129   0.10140   0.09633  -0.0353  0.9893  0.0964  -1.8152   0.0000   0.0000   0.0000   0.1178
  -7.000  -0.2865   0.09322   0.08815  -0.0431  0.9772  0.0949  -1.8565   0.0000   0.0000   0.0000   0.0795
  -6.500  -0.2900   0.08282   0.07772  -0.0519  0.9596  0.0936  -2.0289   0.0000   0.0000   0.0000   0.0516
  -6.000  -0.3223   0.04068   0.03408  -0.1048  0.9347  0.1020  -2.9586   0.0000   0.0000   0.0000  -0.0951
  -5.500  -0.2472   0.03613   0.02893  -0.1128  0.9226  0.1119  -2.7889   0.0000   0.0000   0.0000  -0.2298
  -5.000  -0.1686   0.03409   0.02655  -0.1181  0.9102  0.1242  -2.5498   0.0000   0.0000   0.0000  -0.4811
  -4.500  -0.1002   0.03259   0.02475  -0.1210  0.8933  0.1387  -2.3524   0.0000   0.0000   0.0000  -1.0032
  -4.000  -0.0215   0.03055   0.02235  -0.1253  0.8800  0.1517  -2.1572   0.0000   0.0000   0.0000  -5.7448
  -3.500   0.0496   0.02913   0.02082  -0.1274  0.8636  0.1637  -1.9575   0.0000   0.0000   0.0000   2.8843
  -3.000   0.1266   0.02738   0.01895  -0.1302  0.8487  0.1758  -1.7561   0.0000   0.0000   0.0000   1.2986
  -2.500   0.2079   0.02564   0.01712  -0.1332  0.8357  0.1910  -1.5465   0.0000   0.0000   0.0000   0.9000
  -2.000   0.2798   0.02414   0.01546  -0.1346  0.8168  0.2068  -1.3606   0.0000   0.0000   0.0000   0.7358
  -1.500   0.3575   0.02266   0.01403  -0.1368  0.7982  0.2245  -1.1654   0.0000   0.0000   0.0000   0.6345
  -1.000   0.4392   0.02125   0.01260  -0.1397  0.7762  0.2464  -0.9719   0.0000   0.0000   0.0000   0.5679
  -0.500   0.5262   0.02009   0.01144  -0.1437  0.7496  0.2756  -1.0049   0.0000   0.0000   0.0000   0.5213
   0.000   0.6073   0.01934   0.01061  -0.1468  0.7162  0.3058  -1.0980   0.0000   0.0000   0.0000   0.4889
   0.500   0.6757   0.01902   0.01027  -0.1478  0.6783  0.3399  -1.1843   0.0000   0.0000   0.0000   0.4648
   1.000   0.7397   0.01891   0.01009  -0.1479  0.6405  0.3823  -1.2713   0.0000   0.0000   0.0000   0.4453
   1.500   0.7939   0.01903   0.01020  -0.1464  0.6026  0.4359  -1.3571   0.0000   0.0000   0.0000   0.4288
   2.000   0.8452   0.01924   0.01045  -0.1443  0.5667  0.5026  -1.4414   0.0000   0.0000   0.0000   0.4144
   2.500   0.8934   0.01953   0.01080  -0.1416  0.5329  0.5874  -1.5321   0.0000   0.0000   0.0000   0.4014
   3.000   0.9352   0.01977   0.01124  -0.1374  0.5021  0.7090  -1.6197   0.0000   0.0000   0.0000   0.3891
   3.500   0.9746   0.01977   0.01140  -0.1327  0.4744  1.0000  -1.7059   0.0000   0.0000   0.0000   0.3775
   4.000   1.0218   0.02064   0.01192  -0.1306  0.4467  1.0000  -1.7997   0.0000   0.0000   0.0000   0.3684
   4.500   1.0685   0.02157   0.01253  -0.1283  0.4222  1.0000  -1.8943   0.0000   0.0000   0.0000   0.3600
   5.000   1.1135   0.02256   0.01325  -0.1257  0.3996  1.0000  -1.9879   0.0000   0.0000   0.0000   0.3521
   5.500   1.1558   0.02361   0.01409  -0.1228  0.3784  1.0000  -2.0794   0.0000   0.0000   0.0000   0.3447
   6.000   1.1968   0.02473   0.01510  -0.1197  0.3590  1.0000  -2.1826   0.0000   0.0000   0.0000   0.3377
   6.500   1.2383   0.02592   0.01612  -0.1167  0.3416  1.0000  -2.2891   0.0000   0.0000   0.0000   0.3312
   7.000   1.2765   0.02716   0.01724  -0.1133  0.3249  1.0000  -2.3925   0.0000   0.0000   0.0000   0.3249
   7.500   1.3139   0.02848   0.01845  -0.1099  0.3096  1.0000  -2.4955   0.0000   0.0000   0.0000   0.3190
   8.000   1.3492   0.02994   0.01996  -0.1063  0.2958  1.0000  -2.5953   0.0000   0.0000   0.0000   0.3133
   8.500   1.3851   0.03150   0.02149  -0.1030  0.2836  1.0000  -2.7047   0.0000   0.0000   0.0000   0.3081
   9.000   1.4195   0.03318   0.02317  -0.0995  0.2724  1.0000  -2.8121   0.0000   0.0000   0.0000   0.3030
   9.500   1.4502   0.03498   0.02499  -0.0957  0.2617  1.0000  -2.9147   0.0000   0.0000   0.0000   0.2981
  10.000   1.4778   0.03694   0.02700  -0.0917  0.2516  1.0000  -3.0210   0.0000   0.0000   0.0000   0.2933
  10.500   1.5039   0.03906   0.02918  -0.0878  0.2425  1.0000  -3.1264   0.0000   0.0000   0.0000   0.2887
  11.000   1.5309   0.04122   0.03141  -0.0842  0.2339  1.0000  -3.2348   0.0000   0.0000   0.0000   0.2844
  11.500   1.5502   0.04377   0.03409  -0.0801  0.2260  1.0000  -3.3283   0.0000   0.0000   0.0000   0.2801
  12.000   1.5561   0.04726   0.03787  -0.0753  0.2190  1.0000  -3.3928   0.0000   0.0000   0.0000   0.2759
  12.500   1.5794   0.05005   0.04070  -0.0723  0.2126  1.0000  -3.4925   0.0000   0.0000   0.0000   0.2723
  13.500   1.5670   0.05945   0.05071  -0.0643  0.2006  1.0000  -3.5702   0.0000   0.0000   0.0000   0.2655
  14.000   1.5434   0.06628   0.05791  -0.0615  0.1953  1.0000  -3.5916   0.0000   0.0000   0.0000   0.2632
  14.500   1.5310   0.07295   0.06482  -0.0602  0.1908  1.0000  -3.6352   0.0000   0.0000   0.0000   0.2616
  15.500   1.0585   0.16900   0.16231  -0.1078  0.1620  1.0000  -2.1095   0.0000   0.0000   0.0000   0.3252
  16.500   1.0547   0.18862   0.18204  -0.1185  0.1520  1.0000  -2.0347   0.0000   0.0000   0.0000   0.3345
  17.000   1.0637   0.19586   0.18935  -0.1223  0.1473  1.0000  -2.0414   0.0000   0.0000   0.0000   0.3363
  17.500   1.0596   0.20596   0.19952  -0.1288  0.1444  1.0000  -1.9627   0.0000   0.0000   0.0000   0.3423
  18.000   1.0888   0.20899   0.20258  -0.1292  0.1397  1.0000  -2.0713   0.0000   0.0000   0.0000   0.3380
  18.500   1.0822   0.21865   0.21229  -0.1364  0.1335  1.0000  -1.9683   0.0000   0.0000   0.0000   0.3448
  19.000   1.1028   0.22339   0.21706  -0.1385  0.1298  1.0000  -2.0174   0.0000   0.0000   0.0000   0.3431
  19.500   1.1060   0.23111   0.22483  -0.1442  0.1237  1.0000  -1.9519   0.0000   0.0000   0.0000   0.3470
  20.000   1.1370   0.23316   0.22692  -0.1440  0.1184  1.0000  -2.0804   0.0000   0.0000   0.0000   0.3417


