xflr5 v6.61

 Calculated polar for: E63_15_00

 1 1 Reynolds number fixed          Mach number fixed         

 xtrf =   1.000 (top)        1.000 (bottom)
 Mach =   0.200     Re =     0.060 e 6     Ncrit =   9.000

  alpha     CL        CD       CDp       Cm    Top Xtr Bot Xtr   Cpmin    Chinge    XCp    
 ------- -------- --------- --------- -------- ------- ------- -------- --------- ---------
 -19.500  -0.4616   0.23867   0.23039  -0.0118  1.0000  0.0881  -1.3365   0.0000   0.0000   0.0000   0.1897
 -19.000  -0.4441   0.23288   0.22464  -0.0134  1.0000  0.0909  -1.3094   0.0000   0.0000   0.0000   0.1854
 -18.500  -0.4296   0.22793   0.21974  -0.0155  1.0000  0.0943  -1.3093   0.0000   0.0000   0.0000   0.1798
 -18.000  -0.4220   0.22523   0.21710  -0.0187  1.0000  0.0967  -1.3589   0.0000   0.0000   0.0000   0.1723
 -17.500  -0.4064   0.21853   0.21044  -0.0203  1.0000  0.0980  -1.3483   0.0000   0.0000   0.0000   0.1671
 -17.000  -0.3874   0.21192   0.20388  -0.0209  1.0000  0.1012  -1.3014   0.0000   0.0000   0.0000   0.1629
 -16.500  -0.3745   0.20701   0.19903  -0.0225  1.0000  0.1054  -1.3002   0.0000   0.0000   0.0000   0.1571
 -16.000  -0.3771   0.20617   0.19828  -0.0261  1.0000  0.1078  -1.3877   0.0000   0.0000   0.0000   0.1498
 -15.500  -0.3494   0.19604   0.18821  -0.0252  1.0000  0.1111  -1.2951   0.0000   0.0000   0.0000   0.1459
 -15.000  -0.3382   0.19114   0.18338  -0.0263  1.0000  0.1166  -1.2944   0.0000   0.0000   0.0000   0.1405
 -14.500  -0.3336   0.18659   0.17894  -0.0281  1.0000  0.1195  -1.3350   0.0000   0.0000   0.0000   0.1350
 -14.000  -0.3154   0.17993   0.17231  -0.0277  1.0000  0.1255  -1.2900   0.0000   0.0000   0.0000   0.1311
 -13.500  -0.3143   0.17556   0.16804  -0.0293  1.0000  0.1304  -1.3715   0.0000   0.0000   0.0000   0.1270
 -13.000  -0.3067   0.17075   0.16331  -0.0296  1.0000  0.1398  -1.4097   0.0000   0.0000   0.0000   0.1246
 -12.500  -0.2985   0.16539   0.15804  -0.0294  1.0000  0.1506  -1.4379   0.0000   0.0000   0.0000   0.1231
 -12.000  -0.2965   0.16131   0.15405  -0.0294  1.0000  0.1619  -1.4714   0.0000   0.0000   0.0000   0.1238
 -11.500  -0.2761   0.15380   0.14660  -0.0279  1.0000  0.1680  -1.4221   0.0000   0.0000   0.0000   0.1213
 -11.000  -0.2889   0.15150   0.14442  -0.0286  1.0000  0.1735  -1.4882   0.0000   0.0000   0.0000   0.1260
 -10.500  -0.2660   0.14424   0.13722  -0.0265  1.0000  0.1794  -1.4038   0.0000   0.0000   0.0000   0.1247
 -10.000  -0.2777   0.14129   0.13440  -0.0263  1.0000  0.1848  -1.4426   0.0000   0.0000   0.0000   0.1320
  -9.750  -0.2637   0.13753   0.13066  -0.0249  1.0000  0.1876  -1.3846   0.0000   0.0000   0.0000   0.1318
  -9.500  -0.2614   0.13539   0.12858  -0.0241  1.0000  0.1913  -1.3670   0.0000   0.0000   0.0000   0.1349
  -9.250  -0.2753   0.13485   0.12812  -0.0239  1.0000  0.1947  -1.4054   0.0000   0.0000   0.0000   0.1419
  -9.000  -0.2708   0.13183   0.12516  -0.0229  1.0000  0.1965  -1.3804   0.0000   0.0000   0.0000   0.1446
  -8.750  -0.2621   0.12902   0.12236  -0.0214  1.0000  0.1997  -1.3353   0.0000   0.0000   0.0000   0.1474
  -8.500  -0.2671   0.12758   0.12100  -0.0205  1.0000  0.2042  -1.3358   0.0000   0.0000   0.0000   0.1536
  -8.250  -0.2830   0.12675   0.12027  -0.0199  1.0000  0.2066  -1.3718   0.0000   0.0000   0.0000   0.1619
  -8.000  -0.2665   0.12331   0.11686  -0.0179  1.0000  0.2111  -1.2974   0.0000   0.0000   0.0000   0.1646
  -7.750  -0.2801   0.12259   0.11623  -0.0168  1.0000  0.2161  -1.3190   0.0000   0.0000   0.0000   0.1733
  -7.500  -0.2812   0.12030   0.11402  -0.0154  1.0000  0.2188  -1.3020   0.0000   0.0000   0.0000   0.1793
  -7.250  -0.2764   0.11813   0.11190  -0.0136  1.0000  0.2232  -1.2626   0.0000   0.0000   0.0000   0.1852
  -7.000  -0.2982   0.11788   0.11177  -0.0122  1.0000  0.2274  -1.3030   0.0000   0.0000   0.0000   0.1950
  -6.750  -0.2975   0.11542   0.10938  -0.0106  1.0000  0.2296  -1.2780   0.0000   0.0000   0.0000   0.2010
  -6.500  -0.2935   0.11328   0.10730  -0.0087  1.0000  0.2333  -1.2392   0.0000   0.0000   0.0000   0.2074
  -6.250  -0.3129   0.11274   0.10687  -0.0069  1.0000  0.2378  -1.2661   0.0000   0.0000   0.0000   0.2164
  -6.000  -0.3271   0.11138   0.10561  -0.0050  1.0000  0.2399  -1.2789   0.0000   0.0000   0.0000   0.2240
  -5.750  -0.3191   0.10897   0.10326  -0.0030  1.0000  0.2435  -1.2278   0.0000   0.0000   0.0000   0.2301
  -5.500  -0.3378   0.10830   0.10269  -0.0007  1.0000  0.2481  -1.2472   0.0000   0.0000   0.0000   0.2385
  -5.250  -0.3731   0.10823   0.10275   0.0020  1.0000  0.2503  -1.3078   0.0000   0.0000   0.0000   0.2472
  -5.000  -0.3567   0.10527   0.09983   0.0039  1.0000  0.2539  -1.2694   0.0000   0.0000   0.0000   0.2526
  -4.750  -0.3740   0.10435   0.09900   0.0061  1.0000  0.2587  -1.2932   0.0000   0.0000   0.0000   0.2587
  -4.500  -0.3915   0.10279   0.09754   0.0065  1.0000  0.2620  -1.3290   0.0000   0.0000   0.0000   0.2596
  -4.250  -0.3878   0.10082   0.09562   0.0088  1.0000  0.2660  -1.3123   0.0000   0.0000   0.0000   0.2660
  -4.000  -0.4075   0.09918   0.09407   0.0064  1.0000  0.2722  -1.3655   0.0000   0.0000   0.0000   0.2596
  -3.750  -0.3805   0.09646   0.09135   0.0056  0.9941  0.2786  -1.3236   0.0000   0.0000   0.0000   0.2584
  -3.500  -0.3460   0.09298   0.08784  -0.0022  0.9810  0.2894  -1.3083   0.0000   0.0000   0.0000   0.2372
  -3.250  -0.3165   0.08959   0.08443  -0.0086  0.9679  0.3005  -1.2954   0.0000   0.0000   0.0000   0.2162
  -3.000  -0.2584   0.07119   0.06542  -0.0483  0.9570  0.2157  -1.5853   0.0000   0.0000   0.0000   0.0542
  -2.750  -0.2327   0.07313   0.06750  -0.0447  0.9429  0.2519  -1.4523   0.0000   0.0000   0.0000   0.0493
  -2.500  -0.1352   0.05639   0.04970  -0.0791  0.9351  0.2188  -1.6341   0.0000   0.0000   0.0000  -0.3511
  -2.250  -0.0726   0.05171   0.04447  -0.0903  0.9238  0.2268  -1.6249   0.0000   0.0000   0.0000  -1.0221
  -2.000  -0.0216   0.04989   0.04241  -0.0962  0.9115  0.2402  -1.5583   0.0000   0.0000   0.0000  -4.2957
  -1.750   0.0354   0.04750   0.03960  -0.1034  0.8999  0.2505  -1.4970   0.0000   0.0000   0.0000   3.2146
  -1.500   0.0760   0.04649   0.03846  -0.1064  0.8856  0.2621  -1.4224   0.0000   0.0000   0.0000   1.6683
  -1.250   0.1203   0.04551   0.03732  -0.1097  0.8721  0.2741  -1.3406   0.0000   0.0000   0.0000   1.1712
  -1.000   0.1684   0.04441   0.03605  -0.1135  0.8594  0.2862  -1.2550   0.0000   0.0000   0.0000   0.9289
  -0.750   0.2171   0.04347   0.03498  -0.1169  0.8470  0.3017  -1.1630   0.0000   0.0000   0.0000   0.7912
  -0.500   0.2581   0.04261   0.03392  -0.1193  0.8324  0.3151  -1.0858   0.0000   0.0000   0.0000   0.7135
  -0.250   0.2983   0.04193   0.03326  -0.1209  0.8183  0.3303  -0.9997   0.0000   0.0000   0.0000   0.6554
   0.000   0.3447   0.04104   0.03232  -0.1233  0.8054  0.3507  -0.9077   0.0000   0.0000   0.0000   0.6067
   0.250   0.3920   0.04003   0.03132  -0.1254  0.7931  0.3730  -0.8543   0.0000   0.0000   0.0000   0.5681
   0.500   0.4285   0.03938   0.03064  -0.1261  0.7778  0.3932  -0.8940   0.0000   0.0000   0.0000   0.5419
   0.750   0.4708   0.03842   0.02972  -0.1272  0.7643  0.4167  -0.9403   0.0000   0.0000   0.0000   0.5172
   1.000   0.5171   0.03721   0.02858  -0.1284  0.7521  0.4487  -0.9914   0.0000   0.0000   0.0000   0.4949
   1.250   0.5645   0.03583   0.02732  -0.1295  0.7405  0.4863  -1.0466   0.0000   0.0000   0.0000   0.4754
   1.500   0.6149   0.03431   0.02591  -0.1309  0.7290  0.5330  -1.1085   0.0000   0.0000   0.0000   0.4584
   1.750   0.6681   0.03265   0.02439  -0.1325  0.7173  0.5901  -1.1738   0.0000   0.0000   0.0000   0.4436
   2.000   0.7067   0.03162   0.02356  -0.1322  0.7024  0.6507  -1.2256   0.0000   0.0000   0.0000   0.4319
   2.250   0.7443   0.03039   0.02261  -0.1313  0.6880  0.7352  -1.2774   0.0000   0.0000   0.0000   0.4208
   2.500   0.7831   0.02839   0.02101  -0.1301  0.6743  1.0000  -1.3341   0.0000   0.0000   0.0000   0.4102
   2.750   0.8462   0.02804   0.02015  -0.1361  0.6547  1.0000  -1.4145   0.0000   0.0000   0.0000   0.4046
   3.000   0.8940   0.02787   0.01965  -0.1385  0.6359  1.0000  -1.4825   0.0000   0.0000   0.0000   0.3983
   3.250   0.9437   0.02766   0.01913  -0.1410  0.6174  1.0000  -1.5541   0.0000   0.0000   0.0000   0.3925
   3.500   0.9749   0.02803   0.01929  -0.1409  0.5983  1.0000  -1.6057   0.0000   0.0000   0.0000   0.3872
   3.750   1.0043   0.02850   0.01958  -0.1404  0.5798  1.0000  -1.6555   0.0000   0.0000   0.0000   0.3821
   4.000   1.0416   0.02880   0.01963  -0.1412  0.5623  1.0000  -1.7149   0.0000   0.0000   0.0000   0.3775
   4.250   1.0650   0.02949   0.02019  -0.1399  0.5450  1.0000  -1.7582   0.0000   0.0000   0.0000   0.3729
   4.500   1.0961   0.03003   0.02055  -0.1397  0.5288  1.0000  -1.8108   0.0000   0.0000   0.0000   0.3687
   4.750   1.1181   0.03083   0.02126  -0.1383  0.5130  1.0000  -1.8524   0.0000   0.0000   0.0000   0.3646
   5.000   1.1511   0.03138   0.02160  -0.1384  0.4982  1.0000  -1.9155   0.0000   0.0000   0.0000   0.3608
   5.250   1.1699   0.03233   0.02250  -0.1366  0.4839  1.0000  -1.9604   0.0000   0.0000   0.0000   0.3569
   5.500   1.1906   0.03325   0.02336  -0.1350  0.4702  1.0000  -2.0080   0.0000   0.0000   0.0000   0.3532
   5.750   1.2146   0.03410   0.02415  -0.1339  0.4571  1.0000  -2.0603   0.0000   0.0000   0.0000   0.3497
   6.000   1.2392   0.03498   0.02492  -0.1329  0.4448  1.0000  -2.1136   0.0000   0.0000   0.0000   0.3464
   6.250   1.2626   0.03594   0.02580  -0.1318  0.4332  1.0000  -2.1650   0.0000   0.0000   0.0000   0.3432
   6.500   1.2834   0.03700   0.02682  -0.1304  0.4221  1.0000  -2.2125   0.0000   0.0000   0.0000   0.3400
   6.750   1.3003   0.03822   0.02804  -0.1285  0.4117  1.0000  -2.2543   0.0000   0.0000   0.0000   0.3368
   7.000   1.3152   0.03951   0.02935  -0.1263  0.4016  1.0000  -2.2953   0.0000   0.0000   0.0000   0.3337
   7.250   1.3289   0.04084   0.03071  -0.1240  0.3919  1.0000  -2.3370   0.0000   0.0000   0.0000   0.3306
   7.500   1.3417   0.04223   0.03212  -0.1216  0.3826  1.0000  -2.3773   0.0000   0.0000   0.0000   0.3275
   7.750   1.3582   0.04356   0.03354  -0.1197  0.3739  1.0000  -2.4230   0.0000   0.0000   0.0000   0.3247
   8.000   1.3842   0.04463   0.03452  -0.1192  0.3654  1.0000  -2.4838   0.0000   0.0000   0.0000   0.3222
   8.250   1.3784   0.04680   0.03689  -0.1146  0.3583  1.0000  -2.4932   0.0000   0.0000   0.0000   0.3190
   8.500   1.3807   0.04889   0.03909  -0.1114  0.3520  1.0000  -2.5173   0.0000   0.0000   0.0000   0.3161
   8.750   1.4114   0.04999   0.04010  -0.1115  0.3448  1.0000  -2.5905   0.0000   0.0000   0.0000   0.3140
   9.000   1.3661   0.05382   0.04429  -0.1030  0.3408  1.0000  -2.5360   0.0000   0.0000   0.0000   0.3101
   9.250   1.4103   0.05435   0.04467  -0.1045  0.3332  1.0000  -2.6325   0.0000   0.0000   0.0000   0.3084
   9.500   1.3251   0.06069   0.05146  -0.0937  0.3312  1.0000  -2.5055   0.0000   0.0000   0.0000   0.3048
   9.750   0.9267   0.11271   0.10428  -0.1020  0.3322  1.0000  -1.6392   0.0000   0.0000   0.0000   0.3451
  10.000   0.8229   0.13520   0.12701  -0.1148  0.3797  1.0000  -1.3320   0.0000   0.0000   0.0000   0.3755
  10.250   0.8908   0.12765   0.11932  -0.1074  0.3321  1.0000  -1.5237   0.0000   0.0000   0.0000   0.3554
  10.500   0.8778   0.13605   0.12779  -0.1111  0.3442  1.0000  -1.4611   0.0000   0.0000   0.0000   0.3615
  11.250   0.8242   0.15823   0.15018  -0.1233  0.3999  1.0000  -1.2440   0.0000   0.0000   0.0000   0.3845
  11.500   0.8196   0.16100   0.15295  -0.1244  0.3938  1.0000  -1.2224   0.0000   0.0000   0.0000   0.3863
  12.000   0.8386   0.16701   0.15896  -0.1258  0.3805  1.0000  -1.2419   0.0000   0.0000   0.0000   0.3837
  12.250   0.8477   0.17015   0.16209  -0.1265  0.3743  1.0000  -1.2523   0.0000   0.0000   0.0000   0.3826
  12.500   0.8675   0.17349   0.16543  -0.1267  0.3669  1.0000  -1.2859   0.0000   0.0000   0.0000   0.3790
  12.750   0.8631   0.17581   0.16775  -0.1282  0.3605  1.0000  -1.2659   0.0000   0.0000   0.0000   0.3811
  13.000   0.8860   0.17977   0.17171  -0.1284  0.3557  1.0000  -1.3037   0.0000   0.0000   0.0000   0.3770
  13.250   0.8801   0.18176   0.17370  -0.1301  0.3493  1.0000  -1.2802   0.0000   0.0000   0.0000   0.3795
  13.750   0.9002   0.18758   0.17952  -0.1317  0.3365  1.0000  -1.3146   0.0000   0.0000   0.0000   0.3772
  14.000   0.9097   0.19074   0.18268  -0.1327  0.3312  1.0000  -1.3347   0.0000   0.0000   0.0000   0.3763
  14.250   0.9213   0.19354   0.18557  -0.1334  0.3243  1.0000  -1.3614   0.0000   0.0000   0.0000   0.3748
  14.500   0.9269   0.19656   0.18858  -0.1349  0.3203  1.0000  -1.3694   0.0000   0.0000   0.0000   0.3751
  14.750   0.9365   0.19925   0.19129  -0.1358  0.3139  1.0000  -1.3894   0.0000   0.0000   0.0000   0.3742
  15.000   0.9485   0.20294   0.19498  -0.1368  0.3106  1.0000  -1.4127   0.0000   0.0000   0.0000   0.3729
  15.500   0.9622   0.20816   0.20022  -0.1394  0.2988  1.0000  -1.4329   0.0000   0.0000   0.0000   0.3727
  16.000   0.9779   0.21354   0.20562  -0.1420  0.2872  1.0000  -1.4546   0.0000   0.0000   0.0000   0.3720
  16.500   1.0030   0.22052   0.21264  -0.1438  0.2783  1.0000  -1.4984   0.0000   0.0000   0.0000   0.3692
  17.000   1.0243   0.22681   0.21897  -0.1460  0.2682  1.0000  -1.5287   0.0000   0.0000   0.0000   0.3673
  18.000   1.0514   0.23664   0.22885  -0.1522  0.2473  1.0000  -1.5308   0.0000   0.0000   0.0000   0.3675
  18.500   1.0610   0.24127   0.23357  -0.1563  0.2388  1.0000  -1.5070   0.0000   0.0000   0.0000   0.3691
  19.000   1.0759   0.24684   0.23917  -0.1598  0.2314  1.0000  -1.4969   0.0000   0.0000   0.0000   0.3691
  19.500   1.0962   0.25300   0.24538  -0.1623  0.2232  1.0000  -1.5565   0.0000   0.0000   0.0000   0.3676
  20.000   1.1180   0.25930   0.25174  -0.1646  0.2145  1.0000  -1.6412   0.0000   0.0000   0.0000   0.3655


