xflr5 v6.61

 Calculated polar for: E63_16_00

 1 1 Reynolds number fixed          Mach number fixed         

 xtrf =   1.000 (top)        1.000 (bottom)
 Mach =   0.200     Re =     0.080 e 6     Ncrit =   9.000

  alpha     CL        CD       CDp       Cm    Top Xtr Bot Xtr   Cpmin    Chinge    XCp    
 ------- -------- --------- --------- -------- ------- ------- -------- --------- ---------
 -20.000  -0.4688   0.24569   0.23842  -0.0127  1.0000  0.0756  -1.4421   0.0000   0.0000   0.0000   0.1842
 -19.500  -0.4498   0.23742   0.23021  -0.0141  1.0000  0.0764  -1.4098   0.0000   0.0000   0.0000   0.1799
 -19.000  -0.4296   0.23062   0.22344  -0.0149  1.0000  0.0783  -1.3475   0.0000   0.0000   0.0000   0.1765
 -18.500  -0.4135   0.22539   0.21825  -0.0165  1.0000  0.0810  -1.3220   0.0000   0.0000   0.0000   0.1715
 -18.000  -0.4001   0.22045   0.21334  -0.0186  1.0000  0.0842  -1.3228   0.0000   0.0000   0.0000   0.1652
 -17.500  -0.3974   0.21822   0.21117  -0.0224  1.0000  0.0863  -1.4033   0.0000   0.0000   0.0000   0.1566
 -17.000  -0.3776   0.21007   0.20309  -0.0229  1.0000  0.0876  -1.3550   0.0000   0.0000   0.0000   0.1520
 -16.500  -0.3593   0.20413   0.19720  -0.0233  1.0000  0.0907  -1.3012   0.0000   0.0000   0.0000   0.1478
 -16.000  -0.3484   0.19923   0.19236  -0.0250  1.0000  0.0953  -1.3084   0.0000   0.0000   0.0000   0.1415
 -15.000  -0.3244   0.18779   0.18106  -0.0268  1.0000  0.1015  -1.3359   0.0000   0.0000   0.0000   0.1310
 -14.500  -0.3321   0.18539   0.17874  -0.0300  1.0000  0.1076  -1.4874   0.0000   0.0000   0.0000   0.1255
 -14.000  -0.3050   0.17666   0.17007  -0.0282  1.0000  0.1132  -1.4278   0.0000   0.0000   0.0000   0.1220
 -13.500  -0.3046   0.17192   0.16537  -0.0298  1.0000  0.1198  -1.5102   0.0000   0.0000   0.0000   0.1183
 -13.000  -0.3008   0.16845   0.16196  -0.0302  1.0000  0.1291  -1.5260   0.0000   0.0000   0.0000   0.1168
 -12.500  -0.2794   0.16163   0.15520  -0.0286  1.0000  0.1347  -1.4436   0.0000   0.0000   0.0000   0.1142
 -12.000  -0.2935   0.15975   0.15341  -0.0303  1.0000  0.1402  -1.5219   0.0000   0.0000   0.0000   0.1165
 -11.500  -0.2700   0.15221   0.14593  -0.0284  1.0000  0.1428  -1.4238   0.0000   0.0000   0.0000   0.1139
 -11.000  -0.2618   0.14762   0.14142  -0.0273  1.0000  0.1476  -1.3808   0.0000   0.0000   0.0000   0.1156
 -10.500  -0.2845   0.14554   0.13947  -0.0282  1.0000  0.1514  -1.4645   0.0000   0.0000   0.0000   0.1243
 -10.000  -0.2579   0.13865   0.13264  -0.0252  1.0000  0.1548  -1.3369   0.0000   0.0000   0.0000   0.1249
  -9.750  -0.2558   0.13661   0.13065  -0.0243  1.0000  0.1575  -1.3151   0.0000   0.0000   0.0000   0.1284
  -9.500  -0.2633   0.13520   0.12931  -0.0240  1.0000  0.1608  -1.3307   0.0000   0.0000   0.0000   0.1337
  -9.250  -0.2898   0.13513   0.12935  -0.0245  1.0000  0.1623  -1.4147   0.0000   0.0000   0.0000   0.1431
  -9.000  -0.2686   0.13090   0.12514  -0.0224  1.0000  0.1637  -1.3210   0.0000   0.0000   0.0000   0.1435
  -8.750  -0.2614   0.12860   0.12285  -0.0207  1.0000  0.1661  -1.2728   0.0000   0.0000   0.0000   0.1479
  -8.500  -0.2632   0.12696   0.12128  -0.0195  1.0000  0.1698  -1.2567   0.0000   0.0000   0.0000   0.1540
  -8.250  -0.2916   0.12692   0.12134  -0.0195  1.0000  0.1729  -1.3346   0.0000   0.0000   0.0000   0.1639
  -8.000  -0.2811   0.12373   0.11821  -0.0176  1.0000  0.1746  -1.2761   0.0000   0.0000   0.0000   0.1680
  -7.750  -0.2738   0.12164   0.11617  -0.0156  1.0000  0.1775  -1.2250   0.0000   0.0000   0.0000   0.1740
  -7.500  -0.2797   0.12025   0.11485  -0.0142  1.0000  0.1811  -1.2377   0.0000   0.0000   0.0000   0.1814
  -7.250  -0.3139   0.12029   0.11500  -0.0138  1.0000  0.1840  -1.3269   0.0000   0.0000   0.0000   0.1905
  -7.000  -0.3094   0.11759   0.11236  -0.0120  1.0000  0.1852  -1.3135   0.0000   0.0000   0.0000   0.1961
  -6.750  -0.3024   0.11543   0.11026  -0.0099  1.0000  0.1871  -1.2880   0.0000   0.0000   0.0000   0.2024
  -6.500  -0.3055   0.11395   0.10885  -0.0081  1.0000  0.1897  -1.2875   0.0000   0.0000   0.0000   0.2095
  -6.250  -0.3214   0.11297   0.10795  -0.0067  1.0000  0.1932  -1.3190   0.0000   0.0000   0.0000   0.2165
  -6.000  -0.3704   0.11332   0.10842  -0.0053  1.0000  0.1951  -1.4264   0.0000   0.0000   0.0000   0.2250
  -5.750  -0.3359   0.10932   0.10444  -0.0061  0.9972  0.1971  -1.3610   0.0000   0.0000   0.0000   0.2205
  -5.500  -0.3050   0.10607   0.10117  -0.0114  0.9887  0.2028  -1.3331   0.0000   0.0000   0.0000   0.2006
  -5.250  -0.3121   0.10331   0.09844  -0.0169  0.9765  0.2070  -1.3961   0.0000   0.0000   0.0000   0.1843
  -5.000  -0.2744   0.09980   0.09492  -0.0196  0.9682  0.2115  -1.3364   0.0000   0.0000   0.0000   0.1661
  -4.500  -0.2466   0.09318   0.08831  -0.0276  0.9452  0.2220  -1.3451   0.0000   0.0000   0.0000   0.1253
  -4.250  -0.2529   0.07804   0.07293  -0.0504  0.9323  0.1706  -1.6601   0.0000   0.0000   0.0000   0.0375
  -3.750  -0.1801   0.05533   0.04933  -0.0859  0.9135  0.1710  -1.9216   0.0000   0.0000   0.0000  -0.2459
  -3.250  -0.0954   0.04947   0.04302  -0.0971  0.8937  0.1895  -1.8327   0.0000   0.0000   0.0000  -0.7989
  -3.000  -0.0429   0.04511   0.03811  -0.1054  0.8853  0.1977  -1.8055   0.0000   0.0000   0.0000  -2.2730
  -2.750   0.0039   0.04307   0.03579  -0.1101  0.8757  0.2079  -1.7306   0.0000   0.0000   0.0000  29.2027
  -2.500   0.0586   0.04056   0.03279  -0.1159  0.8679  0.2169  -1.6545   0.0000   0.0000   0.0000   2.2687
  -2.250   0.0982   0.03968   0.03198  -0.1176  0.8573  0.2244  -1.5576   0.0000   0.0000   0.0000   1.4669
  -2.000   0.1405   0.03848   0.03066  -0.1200  0.8468  0.2342  -1.4676   0.0000   0.0000   0.0000   1.1163
  -1.750   0.1835   0.03714   0.02913  -0.1225  0.8363  0.2431  -1.3803   0.0000   0.0000   0.0000   0.9249
  -1.500   0.2265   0.03593   0.02777  -0.1247  0.8259  0.2531  -1.2903   0.0000   0.0000   0.0000   0.8052
  -1.250   0.2688   0.03486   0.02662  -0.1265  0.8153  0.2644  -1.1972   0.0000   0.0000   0.0000   0.7232
  -1.000   0.3120   0.03367   0.02534  -0.1282  0.8050  0.2755  -1.1053   0.0000   0.0000   0.0000   0.6623
  -0.750   0.3556   0.03245   0.02407  -0.1298  0.7948  0.2878  -1.0122   0.0000   0.0000   0.0000   0.6152
  -0.500   0.4009   0.03119   0.02270  -0.1316  0.7848  0.3044  -0.9177   0.0000   0.0000   0.0000   0.5773
  -0.250   0.4459   0.02998   0.02158  -0.1330  0.7747  0.3212  -0.9410   0.0000   0.0000   0.0000   0.5466
   0.000   0.4947   0.02863   0.02021  -0.1351  0.7643  0.3401  -0.9924   0.0000   0.0000   0.0000   0.5208
   0.250   0.5462   0.02730   0.01885  -0.1377  0.7534  0.3605  -1.0485   0.0000   0.0000   0.0000   0.4991
   0.500   0.6004   0.02605   0.01766  -0.1408  0.7415  0.3839  -1.1076   0.0000   0.0000   0.0000   0.4810
   0.750   0.6597   0.02491   0.01652  -0.1448  0.7285  0.4134  -1.1714   0.0000   0.0000   0.0000   0.4656
   1.000   0.7003   0.02435   0.01603  -0.1459  0.7114  0.4413  -1.2216   0.0000   0.0000   0.0000   0.4539
   1.250   0.7509   0.02364   0.01532  -0.1486  0.6950  0.4790  -1.2845   0.0000   0.0000   0.0000   0.4431
   1.500   0.7826   0.02342   0.01514  -0.1482  0.6758  0.5135  -1.3307   0.0000   0.0000   0.0000   0.4342
   1.750   0.8156   0.02319   0.01498  -0.1480  0.6572  0.5522  -1.3786   0.0000   0.0000   0.0000   0.4259
   2.000   0.8518   0.02296   0.01475  -0.1483  0.6391  0.6014  -1.4299   0.0000   0.0000   0.0000   0.4181
   2.250   0.8768   0.02291   0.01480  -0.1466  0.6205  0.6529  -1.4746   0.0000   0.0000   0.0000   0.4109
   2.500   0.8995   0.02284   0.01485  -0.1444  0.6031  0.7171  -1.5190   0.0000   0.0000   0.0000   0.4038
   2.750   0.9171   0.02261   0.01480  -0.1409  0.5873  0.8076  -1.5589   0.0000   0.0000   0.0000   0.3966
   3.000   0.9479   0.02244   0.01462  -0.1408  0.5691  1.0000  -1.6105   0.0000   0.0000   0.0000   0.3911
   3.250   0.9854   0.02285   0.01464  -0.1423  0.5520  1.0000  -1.6697   0.0000   0.0000   0.0000   0.3866
   3.500   1.0095   0.02339   0.01499  -0.1414  0.5350  1.0000  -1.7151   0.0000   0.0000   0.0000   0.3818
   3.750   1.0417   0.02386   0.01517  -0.1417  0.5198  1.0000  -1.7702   0.0000   0.0000   0.0000   0.3774
   4.000   1.0634   0.02446   0.01564  -0.1402  0.5044  1.0000  -1.8135   0.0000   0.0000   0.0000   0.3729
   4.250   1.0892   0.02503   0.01605  -0.1394  0.4900  1.0000  -1.8618   0.0000   0.0000   0.0000   0.3687
   4.500   1.1175   0.02560   0.01641  -0.1390  0.4766  1.0000  -1.9133   0.0000   0.0000   0.0000   0.3647
   4.750   1.1415   0.02623   0.01691  -0.1380  0.4635  1.0000  -1.9598   0.0000   0.0000   0.0000   0.3608
   5.000   1.1634   0.02692   0.01750  -0.1365  0.4508  1.0000  -2.0036   0.0000   0.0000   0.0000   0.3570
   5.250   1.1860   0.02760   0.01809  -0.1353  0.4388  1.0000  -2.0509   0.0000   0.0000   0.0000   0.3533
   5.500   1.2088   0.02830   0.01873  -0.1340  0.4272  1.0000  -2.1027   0.0000   0.0000   0.0000   0.3497
   5.750   1.2315   0.02903   0.01937  -0.1328  0.4162  1.0000  -2.1559   0.0000   0.0000   0.0000   0.3463
   6.000   1.2542   0.02980   0.02004  -0.1316  0.4058  1.0000  -2.2090   0.0000   0.0000   0.0000   0.3430
   6.250   1.2773   0.03058   0.02075  -0.1305  0.3959  1.0000  -2.2628   0.0000   0.0000   0.0000   0.3399
   6.500   1.3018   0.03137   0.02143  -0.1296  0.3865  1.0000  -2.3188   0.0000   0.0000   0.0000   0.3369
   6.750   1.3280   0.03211   0.02204  -0.1290  0.3771  1.0000  -2.3781   0.0000   0.0000   0.0000   0.3341
   7.000   1.3422   0.03301   0.02299  -0.1265  0.3679  1.0000  -2.4201   0.0000   0.0000   0.0000   0.3308
   7.250   1.3574   0.03395   0.02395  -0.1242  0.3591  1.0000  -2.4634   0.0000   0.0000   0.0000   0.3277
   7.500   1.3758   0.03489   0.02494  -0.1224  0.3509  1.0000  -2.5114   0.0000   0.0000   0.0000   0.3248
   7.750   1.4023   0.03573   0.02566  -0.1219  0.3432  1.0000  -2.5761   0.0000   0.0000   0.0000   0.3223
   8.000   1.4146   0.03686   0.02688  -0.1193  0.3360  1.0000  -2.6185   0.0000   0.0000   0.0000   0.3194
   8.250   1.4286   0.03808   0.02816  -0.1171  0.3294  1.0000  -2.6630   0.0000   0.0000   0.0000   0.3166
   8.500   1.4592   0.03897   0.02890  -0.1172  0.3228  1.0000  -2.7342   0.0000   0.0000   0.0000   0.3146
   8.750   1.4564   0.04057   0.03074  -0.1126  0.3169  1.0000  -2.7516   0.0000   0.0000   0.0000   0.3112
   9.000   1.4847   0.04151   0.03157  -0.1125  0.3107  1.0000  -2.8199   0.0000   0.0000   0.0000   0.3092
   9.250   1.4785   0.04315   0.03344  -0.1075  0.3052  1.0000  -2.8348   0.0000   0.0000   0.0000   0.3058
   9.500   1.5029   0.04419   0.03440  -0.1069  0.2994  1.0000  -2.9031   0.0000   0.0000   0.0000   0.3037
   9.750   1.4898   0.04609   0.03654  -0.1012  0.2947  1.0000  -2.9074   0.0000   0.0000   0.0000   0.3001
  10.000   1.5230   0.04696   0.03727  -0.1018  0.2891  1.0000  -2.9907   0.0000   0.0000   0.0000   0.2986
  10.250   1.4918   0.04960   0.04026  -0.0943  0.2855  1.0000  -2.9620   0.0000   0.0000   0.0000   0.2946
  10.500   1.5163   0.05059   0.04118  -0.0937  0.2803  1.0000  -3.0310   0.0000   0.0000   0.0000   0.2928
  10.750   1.4974   0.05321   0.04402  -0.0885  0.2767  1.0000  -3.0223   0.0000   0.0000   0.0000   0.2896
  11.000   1.4557   0.05714   0.04827  -0.0821  0.2737  1.0000  -2.9702   0.0000   0.0000   0.0000   0.2865
  11.250   1.5224   0.05629   0.04718  -0.0852  0.2679  1.0000  -3.1164   0.0000   0.0000   0.0000   0.2856
  11.500   1.4433   0.06254   0.05393  -0.0768  0.2664  1.0000  -2.9909   0.0000   0.0000   0.0000   0.2824
  17.500   0.7664   0.21226   0.20662  -0.1189  0.2150  1.0000  -1.0330   0.0000   0.0000   0.0000   0.3834
  18.000   0.7681   0.21738   0.21181  -0.1217  0.2068  1.0000  -0.9970   0.0000   0.0000   0.0000   0.3862
  18.500   0.7781   0.22320   0.21769  -0.1238  0.2010  1.0000  -0.9854   0.0000   0.0000   0.0000   0.3860
  20.000   1.0844   0.25266   0.24584  -0.1578  0.1900  1.0000  -1.5581   0.0000   0.0000   0.0000   0.3628


