xflr5 v6.61

 Calculated polar for: E63_14_00

 1 1 Reynolds number fixed          Mach number fixed         

 xtrf =   1.000 (top)        1.000 (bottom)
 Mach =   0.200     Re =     0.125 e 6     Ncrit =   9.000

  alpha     CL        CD       CDp       Cm    Top Xtr Bot Xtr   Cpmin    Chinge    XCp    
 ------- -------- --------- --------- -------- ------- ------- -------- --------- ---------
 -20.000  -0.4979   0.24141   0.23569  -0.0075  1.0000  0.0468  -1.4931   0.0000   0.0000   0.0000   0.2035
 -19.500  -0.4795   0.23527   0.22957  -0.0087  1.0000  0.0479  -1.4171   0.0000   0.0000   0.0000   0.2008
 -19.000  -0.4634   0.23004   0.22438  -0.0105  1.0000  0.0495  -1.3739   0.0000   0.0000   0.0000   0.1967
 -18.500  -0.4483   0.22480   0.21917  -0.0125  1.0000  0.0516  -1.3495   0.0000   0.0000   0.0000   0.1918
 -18.000  -0.4347   0.21956   0.21396  -0.0149  1.0000  0.0541  -1.3500   0.0000   0.0000   0.0000   0.1859
 -17.500  -0.4294   0.21645   0.21087  -0.0190  1.0000  0.0556  -1.4444   0.0000   0.0000   0.0000   0.1768
 -17.000  -0.4212   0.21119   0.20568  -0.0216  1.0000  0.0561  -1.5090   0.0000   0.0000   0.0000   0.1703
 -16.500  -0.3952   0.20276   0.19728  -0.0204  1.0000  0.0580  -1.3705   0.0000   0.0000   0.0000   0.1697
 -16.000  -0.3801   0.19761   0.19217  -0.0213  1.0000  0.0608  -1.3378   0.0000   0.0000   0.0000   0.1655
 -15.500  -0.3684   0.19235   0.18695  -0.0229  1.0000  0.0638  -1.3505   0.0000   0.0000   0.0000   0.1598
 -15.000  -0.3682   0.18880   0.18346  -0.0264  1.0000  0.0656  -1.4637   0.0000   0.0000   0.0000   0.1512
 -14.500  -0.3633   0.18327   0.17800  -0.0283  1.0000  0.0661  -1.5157   0.0000   0.0000   0.0000   0.1459
 -14.000  -0.3385   0.17544   0.17021  -0.0267  1.0000  0.0675  -1.3910   0.0000   0.0000   0.0000   0.1445
 -13.500  -0.3251   0.17017   0.16498  -0.0266  1.0000  0.0698  -1.3471   0.0000   0.0000   0.0000   0.1417
 -13.000  -0.3165   0.16494   0.15980  -0.0273  1.0000  0.0730  -1.3469   0.0000   0.0000   0.0000   0.1380
 -12.500  -0.3295   0.16158   0.15652  -0.0307  1.0000  0.0756  -1.5012   0.0000   0.0000   0.0000   0.1329
 -12.000  -0.3149   0.15384   0.14886  -0.0298  1.0000  0.0766  -1.4603   0.0000   0.0000   0.0000   0.1314
 -11.500  -0.2979   0.14821   0.14328  -0.0280  1.0000  0.0792  -1.3713   0.0000   0.0000   0.0000   0.1324
 -11.000  -0.2938   0.14312   0.13827  -0.0277  1.0000  0.0838  -1.3802   0.0000   0.0000   0.0000   0.1328
 -10.500  -0.3300   0.13954   0.13482  -0.0317  1.0000  0.0864  -1.6639   0.0000   0.0000   0.0000   0.1342
 -10.000  -0.2915   0.13206   0.12738  -0.0265  1.0000  0.0915  -1.5047   0.0000   0.0000   0.0000   0.1385
  -9.750  -0.3032   0.12993   0.12530  -0.0273  1.0000  0.0962  -1.6077   0.0000   0.0000   0.0000   0.1405
  -9.500  -0.3336   0.12822   0.12368  -0.0297  1.0000  0.0970  -1.8006   0.0000   0.0000   0.0000   0.1437
  -9.250  -0.2996   0.12402   0.11947  -0.0253  1.0000  0.1000  -1.6422   0.0000   0.0000   0.0000   0.1471
  -9.000  -0.2981   0.12204   0.11752  -0.0241  1.0000  0.1037  -1.6348   0.0000   0.0000   0.0000   0.1510
  -8.750  -0.3180   0.12041   0.11596  -0.0250  1.0000  0.1071  -1.7395   0.0000   0.0000   0.0000   0.1549
  -8.500  -0.3427   0.11861   0.11424  -0.0260  1.0000  0.1076  -1.8617   0.0000   0.0000   0.0000   0.1594
  -7.000  -0.4135   0.09759   0.09347  -0.0212  1.0000  0.0868  -2.2422   0.0000   0.0000   0.0000   0.1875
  -6.500  -0.4429   0.08277   0.07863  -0.0307  0.9940  0.0754  -2.6016   0.0000   0.0000   0.0000   0.1698
  -6.000  -0.3906   0.03566   0.02917  -0.0980  0.9827  0.0760  -3.4641   0.0000   0.0000   0.0000  -0.0154
  -5.750  -0.3512   0.03569   0.02937  -0.1004  0.9761  0.0786  -3.2426   0.0000   0.0000   0.0000  -0.0510
  -5.500  -0.3072   0.03482   0.02833  -0.1044  0.9705  0.0824  -3.0466   0.0000   0.0000   0.0000  -0.1062
  -5.250  -0.2646   0.03242   0.02533  -0.1092  0.9640  0.0871  -2.9044   0.0000   0.0000   0.0000  -0.1811
  -5.000  -0.2275   0.03298   0.02614  -0.1108  0.9562  0.0920  -2.7326   0.0000   0.0000   0.0000  -0.2565
  -4.750  -0.1803   0.03220   0.02508  -0.1150  0.9512  0.0996  -2.6043   0.0000   0.0000   0.0000  -0.4111
  -4.500  -0.1409   0.03151   0.02412  -0.1176  0.9430  0.1075  -2.4968   0.0000   0.0000   0.0000  -0.6127
  -4.250  -0.1041   0.03131   0.02413  -0.1192  0.9349  0.1134  -2.3627   0.0000   0.0000   0.0000  -0.9299
  -4.000  -0.0573   0.03009   0.02264  -0.1229  0.9297  0.1217  -2.2631   0.0000   0.0000   0.0000  -1.9556
  -3.750  -0.0159   0.02917   0.02148  -0.1255  0.9224  0.1307  -2.1629   0.0000   0.0000   0.0000  -7.8544
  -3.500   0.0227   0.02860   0.02081  -0.1273  0.9142  0.1393  -2.0518   0.0000   0.0000   0.0000   5.9826
  -3.250   0.0646   0.02813   0.02035  -0.1295  0.9074  0.1489  -1.9256   0.0000   0.0000   0.0000   2.2945
  -3.000   0.1083   0.02768   0.01984  -0.1320  0.9006  0.1609  -1.7968   0.0000   0.0000   0.0000   1.4909
  -2.750   0.1457   0.02720   0.01937  -0.1334  0.8917  0.1711  -1.6827   0.0000   0.0000   0.0000   1.1793
  -2.500   0.1850   0.02667   0.01882  -0.1349  0.8833  0.1824  -1.5817   0.0000   0.0000   0.0000   0.9892
  -2.250   0.2340   0.02580   0.01787  -0.1381  0.8787  0.1944  -1.4705   0.0000   0.0000   0.0000   0.8463
  -2.000   0.2709   0.02509   0.01719  -0.1391  0.8695  0.2033  -1.3774   0.0000   0.0000   0.0000   0.7678
  -1.750   0.3093   0.02439   0.01648  -0.1403  0.8608  0.2145  -1.2825   0.0000   0.0000   0.0000   0.7065
  -1.500   0.3522   0.02355   0.01559  -0.1421  0.8538  0.2276  -1.1829   0.0000   0.0000   0.0000   0.6553
  -1.250   0.3971   0.02253   0.01465  -0.1441  0.8478  0.2409  -1.0793   0.0000   0.0000   0.0000   0.6139
  -1.000   0.4362   0.02171   0.01389  -0.1452  0.8388  0.2552  -0.9850   0.0000   0.0000   0.0000   0.5829
  -0.750   0.4793   0.02078   0.01296  -0.1468  0.8306  0.2724  -0.8884   0.0000   0.0000   0.0000   0.5558
  -0.500   0.5323   0.01959   0.01184  -0.1502  0.8249  0.2929  -0.9070   0.0000   0.0000   0.0000   0.5309
  -0.250   0.5771   0.01876   0.01107  -0.1522  0.8144  0.3153  -0.9558   0.0000   0.0000   0.0000   0.5121
   0.000   0.6205   0.01804   0.01045  -0.1541  0.8015  0.3392  -1.0049   0.0000   0.0000   0.0000   0.4962
   0.250   0.6636   0.01742   0.00992  -0.1560  0.7864  0.3648  -1.0541   0.0000   0.0000   0.0000   0.4825
   0.500   0.7157   0.01679   0.00936  -0.1597  0.7712  0.3983  -1.1133   0.0000   0.0000   0.0000   0.4700
   0.750   0.7540   0.01646   0.00910  -0.1608  0.7511  0.4342  -1.1644   0.0000   0.0000   0.0000   0.4598
   1.000   0.7911   0.01619   0.00890  -0.1616  0.7299  0.4754  -1.2150   0.0000   0.0000   0.0000   0.4505
   1.250   0.8257   0.01601   0.00878  -0.1620  0.7076  0.5241  -1.2678   0.0000   0.0000   0.0000   0.4421
   1.500   0.8567   0.01591   0.00875  -0.1617  0.6848  0.5782  -1.3194   0.0000   0.0000   0.0000   0.4342
   1.750   0.8842   0.01586   0.00878  -0.1607  0.6619  0.6403  -1.3682   0.0000   0.0000   0.0000   0.4268
   2.000   0.9068   0.01583   0.00885  -0.1586  0.6393  0.7171  -1.4126   0.0000   0.0000   0.0000   0.4196
   2.250   0.9219   0.01566   0.00885  -0.1547  0.6185  0.8315  -1.4504   0.0000   0.0000   0.0000   0.4122
   2.750   0.9753   0.01605   0.00884  -0.1531  0.5743  1.0000  -1.5475   0.0000   0.0000   0.0000   0.4007
   3.000   0.9999   0.01644   0.00901  -0.1520  0.5530  1.0000  -1.5945   0.0000   0.0000   0.0000   0.3954
   3.250   1.0234   0.01684   0.00922  -0.1507  0.5324  1.0000  -1.6406   0.0000   0.0000   0.0000   0.3902
   3.500   1.0465   0.01726   0.00945  -0.1493  0.5126  1.0000  -1.6865   0.0000   0.0000   0.0000   0.3854
   3.750   1.0696   0.01770   0.00971  -0.1480  0.4940  1.0000  -1.7328   0.0000   0.0000   0.0000   0.3807
   4.000   1.0928   0.01816   0.00999  -0.1467  0.4764  1.0000  -1.7795   0.0000   0.0000   0.0000   0.3762
   4.250   1.1141   0.01861   0.01032  -0.1451  0.4590  1.0000  -1.8241   0.0000   0.0000   0.0000   0.3718
   4.500   1.1371   0.01910   0.01062  -0.1437  0.4432  1.0000  -1.8711   0.0000   0.0000   0.0000   0.3677
   4.750   1.1582   0.01958   0.01100  -0.1421  0.4275  1.0000  -1.9173   0.0000   0.0000   0.0000   0.3636
   5.000   1.1804   0.02009   0.01139  -0.1407  0.4132  1.0000  -1.9710   0.0000   0.0000   0.0000   0.3597
   5.250   1.2035   0.02064   0.01179  -0.1395  0.4000  1.0000  -2.0260   0.0000   0.0000   0.0000   0.3561
   5.500   1.2266   0.02120   0.01226  -0.1383  0.3876  1.0000  -2.0812   0.0000   0.0000   0.0000   0.3526
   5.750   1.2486   0.02176   0.01275  -0.1369  0.3755  1.0000  -2.1348   0.0000   0.0000   0.0000   0.3491
   6.000   1.2708   0.02235   0.01326  -0.1356  0.3642  1.0000  -2.1890   0.0000   0.0000   0.0000   0.3458
   6.250   1.2928   0.02294   0.01377  -0.1342  0.3533  1.0000  -2.2434   0.0000   0.0000   0.0000   0.3426
   6.500   1.3150   0.02355   0.01429  -0.1329  0.3430  1.0000  -2.3022   0.0000   0.0000   0.0000   0.3394
   6.750   1.3384   0.02419   0.01483  -0.1319  0.3334  1.0000  -2.3637   0.0000   0.0000   0.0000   0.3365
   7.000   1.3582   0.02482   0.01545  -0.1301  0.3240  1.0000  -2.4197   0.0000   0.0000   0.0000   0.3334
   7.250   1.3783   0.02549   0.01619  -0.1285  0.3150  1.0000  -2.4763   0.0000   0.0000   0.0000   0.3305
   7.500   1.3996   0.02620   0.01687  -0.1271  0.3067  1.0000  -2.5389   0.0000   0.0000   0.0000   0.3277
   7.750   1.4222   0.02691   0.01750  -0.1260  0.2987  1.0000  -2.6057   0.0000   0.0000   0.0000   0.3251
   8.000   1.4427   0.02759   0.01812  -0.1245  0.2906  1.0000  -2.6700   0.0000   0.0000   0.0000   0.3224
   8.250   1.4576   0.02830   0.01890  -0.1220  0.2827  1.0000  -2.7251   0.0000   0.0000   0.0000   0.3194
   8.500   1.4767   0.02906   0.01963  -0.1204  0.2753  1.0000  -2.7875   0.0000   0.0000   0.0000   0.3168
   8.750   1.5001   0.02980   0.02027  -0.1195  0.2685  1.0000  -2.8575   0.0000   0.0000   0.0000   0.3145
   9.000   1.5130   0.03066   0.02125  -0.1168  0.2619  1.0000  -2.9086   0.0000   0.0000   0.0000   0.3116
   9.250   1.5376   0.03151   0.02202  -0.1161  0.2559  1.0000  -2.9799   0.0000   0.0000   0.0000   0.3095
   9.500   1.5507   0.03242   0.02304  -0.1136  0.2499  1.0000  -3.0315   0.0000   0.0000   0.0000   0.3069
   9.750   1.5720   0.03334   0.02392  -0.1124  0.2443  1.0000  -3.0977   0.0000   0.0000   0.0000   0.3047
  10.000   1.5848   0.03426   0.02499  -0.1099  0.2386  1.0000  -3.1666   0.0000   0.0000   0.0000   0.3021
  10.250   1.6042   0.03524   0.02596  -0.1085  0.2334  1.0000  -3.2536   0.0000   0.0000   0.0000   0.3000
  10.500   1.6149   0.03628   0.02711  -0.1058  0.2283  1.0000  -3.3228   0.0000   0.0000   0.0000   0.2974
  10.750   1.6404   0.03729   0.02805  -0.1054  0.2236  1.0000  -3.4237   0.0000   0.0000   0.0000   0.2957
  11.000   1.6432   0.03856   0.02955  -0.1017  0.2192  1.0000  -3.4755   0.0000   0.0000   0.0000   0.2929
  11.250   1.6684   0.03939   0.03024  -0.1013  0.2144  1.0000  -3.5799   0.0000   0.0000   0.0000   0.2912
  11.500   1.6663   0.04081   0.03191  -0.0971  0.2103  1.0000  -3.6220   0.0000   0.0000   0.0000   0.2884
  11.750   1.6747   0.04187   0.03303  -0.0945  0.2057  1.0000  -3.6906   0.0000   0.0000   0.0000   0.2861
  12.000   1.6879   0.04298   0.03417  -0.0926  0.2014  1.0000  -3.7701   0.0000   0.0000   0.0000   0.2840
  12.250   1.6837   0.04460   0.03602  -0.0887  0.1975  1.0000  -3.8078   0.0000   0.0000   0.0000   0.2814
  12.500   1.7034   0.04535   0.03666  -0.0876  0.1931  1.0000  -3.9055   0.0000   0.0000   0.0000   0.2796
  12.750   1.6985   0.04725   0.03878  -0.0841  0.1898  1.0000  -3.9406   0.0000   0.0000   0.0000   0.2773
  13.000   1.6941   0.04913   0.04086  -0.0809  0.1862  1.0000  -3.9773   0.0000   0.0000   0.0000   0.2750
  13.250   1.7181   0.04968   0.04123  -0.0803  0.1820  1.0000  -4.0882   0.0000   0.0000   0.0000   0.2735
  13.500   1.7034   0.05229   0.04415  -0.0767  0.1792  1.0000  -4.0975   0.0000   0.0000   0.0000   0.2712
  13.750   1.6929   0.05483   0.04691  -0.0739  0.1760  1.0000  -4.1170   0.0000   0.0000   0.0000   0.2693
  14.000   1.7050   0.05595   0.04803  -0.0726  0.1724  1.0000  -4.1983   0.0000   0.0000   0.0000   0.2677
  14.250   1.7050   0.05817   0.05035  -0.0708  0.1694  1.0000  -4.2440   0.0000   0.0000   0.0000   0.2661
  14.500   1.6834   0.06201   0.05450  -0.0685  0.1671  1.0000  -4.2293   0.0000   0.0000   0.0000   0.2648
  14.750   1.6732   0.06523   0.05791  -0.0671  0.1645  1.0000  -4.2444   0.0000   0.0000   0.0000   0.2636
  15.000   1.6870   0.06651   0.05916  -0.0663  0.1615  1.0000  -4.3275   0.0000   0.0000   0.0000   0.2622
  15.500   1.6451   0.07585   0.06898  -0.0650  0.1574  1.0000  -4.2878   0.0000   0.0000   0.0000   0.2613
  16.000   1.5792   0.08950   0.08319  -0.0674  0.1534  1.0000  -4.1601   0.0000   0.0000   0.0000   0.2634
  16.500   1.5668   0.09747   0.09130  -0.0692  0.1483  1.0000  -4.1912   0.0000   0.0000   0.0000   0.2637
  20.000   1.1641   0.25200   0.24698  -0.1694  0.1323  1.0000  -1.9188   0.0000   0.0000   0.0000   0.3636


