xflr5 v6.61

 Calculated polar for: E63_16_00

 1 1 Reynolds number fixed          Mach number fixed         

 xtrf =   1.000 (top)        1.000 (bottom)
 Mach =   0.200     Re =     0.060 e 6     Ncrit =   7.000

  alpha     CL        CD       CDp       Cm    Top Xtr Bot Xtr   Cpmin    Chinge    XCp    
 ------- -------- --------- --------- -------- ------- ------- -------- --------- ---------
 -28.000  -0.7050   0.32399   0.31527   0.0365  1.0000  0.0561  -1.5547   0.0000   0.0000   0.0000   0.2522
 -27.500  -0.6874   0.31595   0.30722   0.0341  1.0000  0.0571  -1.5028   0.0000   0.0000   0.0000   0.2506
 -27.000  -0.6717   0.31076   0.30201   0.0309  1.0000  0.0583  -1.4760   0.0000   0.0000   0.0000   0.2480
 -26.500  -0.6563   0.30602   0.29728   0.0276  1.0000  0.0599  -1.4601   0.0000   0.0000   0.0000   0.2448
 -26.000  -0.6411   0.30136   0.29262   0.0241  1.0000  0.0616  -1.4510   0.0000   0.0000   0.0000   0.2412
 -25.500  -0.6262   0.29679   0.28806   0.0206  1.0000  0.0635  -1.4497   0.0000   0.0000   0.0000   0.2372
 -25.000  -0.6123   0.29280   0.28409   0.0167  1.0000  0.0650  -1.4651   0.0000   0.0000   0.0000   0.2324
 -24.500  -0.6003   0.29015   0.28143   0.0124  1.0000  0.0656  -1.4980   0.0000   0.0000   0.0000   0.2267
 -24.000  -0.5866   0.28551   0.27685   0.0089  1.0000  0.0660  -1.5049   0.0000   0.0000   0.0000   0.2220
 -23.500  -0.5660   0.27719   0.26854   0.0075  1.0000  0.0678  -1.4262   0.0000   0.0000   0.0000   0.2202
 -23.000  -0.5492   0.27214   0.26351   0.0049  1.0000  0.0706  -1.3900   0.0000   0.0000   0.0000   0.2165
 -22.500  -0.5342   0.26752   0.25892   0.0018  1.0000  0.0735  -1.3786   0.0000   0.0000   0.0000   0.2116
 -22.000  -0.5220   0.26412   0.25555  -0.0019  1.0000  0.0752  -1.3972   0.0000   0.0000   0.0000   0.2052
 -21.500  -0.5140   0.26276   0.25424  -0.0060  1.0000  0.0757  -1.4619   0.0000   0.0000   0.0000   0.1982
 -21.000  -0.4909   0.25273   0.24423  -0.0069  1.0000  0.0769  -1.3952   0.0000   0.0000   0.0000   0.1956
 -20.500  -0.4730   0.24690   0.23844  -0.0087  1.0000  0.0790  -1.3606   0.0000   0.0000   0.0000   0.1916
 -20.000  -0.4570   0.24178   0.23335  -0.0108  1.0000  0.0815  -1.3472   0.0000   0.0000   0.0000   0.1866
 -19.500  -0.4429   0.23697   0.22859  -0.0133  1.0000  0.0843  -1.3524   0.0000   0.0000   0.0000   0.1806
 -19.000  -0.4337   0.23358   0.22525  -0.0167  1.0000  0.0861  -1.3972   0.0000   0.0000   0.0000   0.1731
 -18.500  -0.4208   0.22809   0.21984  -0.0189  1.0000  0.0869  -1.4063   0.0000   0.0000   0.0000   0.1670
 -18.000  -0.3999   0.22095   0.21272  -0.0194  1.0000  0.0893  -1.3431   0.0000   0.0000   0.0000   0.1631
 -17.500  -0.3849   0.21572   0.20754  -0.0209  1.0000  0.0927  -1.3252   0.0000   0.0000   0.0000   0.1576
 -17.000  -0.3761   0.21151   0.20340  -0.0234  1.0000  0.0963  -1.3581   0.0000   0.0000   0.0000   0.1503
 -16.500  -0.3675   0.20645   0.19843  -0.0256  1.0000  0.0976  -1.3889   0.0000   0.0000   0.0000   0.1437
 -16.000  -0.3467   0.19953   0.19157  -0.0254  1.0000  0.1014  -1.3261   0.0000   0.0000   0.0000   0.1394
 -15.500  -0.3402   0.19517   0.18728  -0.0274  1.0000  0.1069  -1.3887   0.0000   0.0000   0.0000   0.1330
 -15.000  -0.3259   0.18866   0.18085  -0.0279  1.0000  0.1105  -1.4058   0.0000   0.0000   0.0000   0.1281
 -14.500  -0.3248   0.18496   0.17724  -0.0298  1.0000  0.1191  -1.4913   0.0000   0.0000   0.0000   0.1233
 -14.000  -0.3198   0.18125   0.17360  -0.0306  1.0000  0.1295  -1.5258   0.0000   0.0000   0.0000   0.1205
 -13.500  -0.2992   0.17432   0.16671  -0.0296  1.0000  0.1393  -1.4715   0.0000   0.0000   0.0000   0.1165
 -13.000  -0.2920   0.16889   0.16135  -0.0301  1.0000  0.1416  -1.4807   0.0000   0.0000   0.0000   0.1133
 -12.500  -0.2770   0.16331   0.15582  -0.0293  1.0000  0.1462  -1.4326   0.0000   0.0000   0.0000   0.1104
 -12.000  -0.2825   0.16019   0.15279  -0.0303  1.0000  0.1509  -1.4713   0.0000   0.0000   0.0000   0.1113
 -11.500  -0.2680   0.15389   0.14658  -0.0292  1.0000  0.1534  -1.4149   0.0000   0.0000   0.0000   0.1095
 -11.000  -0.2591   0.14918   0.14195  -0.0282  1.0000  0.1586  -1.3715   0.0000   0.0000   0.0000   0.1105
 -10.500  -0.2775   0.14689   0.13980  -0.0288  1.0000  0.1622  -1.4345   0.0000   0.0000   0.0000   0.1190
 -10.000  -0.2535   0.14016   0.13316  -0.0262  1.0000  0.1663  -1.3222   0.0000   0.0000   0.0000   0.1189
  -9.500  -0.2711   0.13779   0.13094  -0.0257  1.0000  0.1730  -1.3601   0.0000   0.0000   0.0000   0.1309
  -9.000  -0.2533   0.13208   0.12530  -0.0227  1.0000  0.1780  -1.2621   0.0000   0.0000   0.0000   0.1358
  -8.500  -0.2707   0.12933   0.12272  -0.0213  1.0000  0.1836  -1.2856   0.0000   0.0000   0.0000   0.1500
  -8.000  -0.2729   0.12487   0.11840  -0.0188  1.0000  0.1857  -1.2540   0.0000   0.0000   0.0000   0.1612
  -7.500  -0.2723   0.12099   0.11466  -0.0157  1.0000  0.1898  -1.2424   0.0000   0.0000   0.0000   0.1740
  -6.000  -0.3702   0.10233   0.09635  -0.0189  0.9925  0.1407  -1.7078   0.0000   0.0000   0.0000   0.1867
  -5.500  -0.3316   0.09397   0.08794  -0.0279  0.9760  0.1353  -1.7215   0.0000   0.0000   0.0000   0.1528
  -5.000  -0.3088   0.08232   0.07621  -0.0436  0.9548  0.1362  -1.8460   0.0000   0.0000   0.0000   0.0953
  -4.500  -0.2653   0.06992   0.06360  -0.0622  0.9340  0.1452  -1.9283   0.0000   0.0000   0.0000   0.0007
  -4.000  -0.1910   0.05317   0.04586  -0.0896  0.9164  0.1628  -2.0617   0.0000   0.0000   0.0000  -0.2392
  -3.500  -0.1069   0.04800   0.04024  -0.0996  0.8996  0.1762  -1.9515   0.0000   0.0000   0.0000  -0.7132
  -3.000  -0.0259   0.04382   0.03543  -0.1078  0.8798  0.1936  -1.8250   0.0000   0.0000   0.0000  -4.0150
  -2.500   0.0521   0.04129   0.03261  -0.1127  0.8591  0.2097  -1.6605   0.0000   0.0000   0.0000   2.4591
  -2.000   0.1341   0.03864   0.02946  -0.1180  0.8382  0.2281  -1.4972   0.0000   0.0000   0.0000   1.1431
  -1.500   0.2104   0.03698   0.02772  -0.1207  0.8166  0.2471  -1.3156   0.0000   0.0000   0.0000   0.8289
  -1.000   0.2890   0.03511   0.02571  -0.1234  0.7951  0.2685  -1.1385   0.0000   0.0000   0.0000   0.6787
  -0.500   0.3675   0.03335   0.02390  -0.1255  0.7737  0.2966  -0.9593   0.0000   0.0000   0.0000   0.5907
   0.000   0.4493   0.03142   0.02189  -0.1276  0.7516  0.3274  -0.9562   0.0000   0.0000   0.0000   0.5318
   0.500   0.5356   0.02951   0.02004  -0.1301  0.7284  0.3665  -1.0536   0.0000   0.0000   0.0000   0.4895
   1.000   0.6146   0.02821   0.01882  -0.1317  0.6999  0.4171  -1.1476   0.0000   0.0000   0.0000   0.4599
   1.500   0.6999   0.02706   0.01772  -0.1343  0.6696  0.4826  -1.2543   0.0000   0.0000   0.0000   0.4367
   2.000   0.7722   0.02642   0.01721  -0.1350  0.6361  0.5642  -1.3550   0.0000   0.0000   0.0000   0.4188
   2.500   0.8312   0.02602   0.01706  -0.1332  0.6029  0.6766  -1.4473   0.0000   0.0000   0.0000   0.4034
   3.000   0.8759   0.02528   0.01669  -0.1283  0.5718  1.0000  -1.5351   0.0000   0.0000   0.0000   0.3889
   3.500   0.9415   0.02614   0.01694  -0.1296  0.5384  1.0000  -1.6424   0.0000   0.0000   0.0000   0.3794
   4.000   1.0015   0.02708   0.01738  -0.1295  0.5082  1.0000  -1.7467   0.0000   0.0000   0.0000   0.3703
   4.500   1.0488   0.02830   0.01834  -0.1274  0.4797  1.0000  -1.8375   0.0000   0.0000   0.0000   0.3618
   5.000   1.1024   0.02949   0.01918  -0.1263  0.4542  1.0000  -1.9368   0.0000   0.0000   0.0000   0.3541
   5.500   1.1477   0.03092   0.02040  -0.1239  0.4306  1.0000  -2.0296   0.0000   0.0000   0.0000   0.3468
   6.000   1.1931   0.03243   0.02175  -0.1217  0.4090  1.0000  -2.1331   0.0000   0.0000   0.0000   0.3400
   6.500   1.2351   0.03406   0.02324  -0.1190  0.3889  1.0000  -2.2350   0.0000   0.0000   0.0000   0.3336
   7.000   1.2678   0.03602   0.02519  -0.1150  0.3706  1.0000  -2.3234   0.0000   0.0000   0.0000   0.3273
   7.500   1.3113   0.03782   0.02685  -0.1127  0.3543  1.0000  -2.4280   0.0000   0.0000   0.0000   0.3217
   8.000   1.3318   0.04012   0.02933  -0.1073  0.3388  1.0000  -2.5017   0.0000   0.0000   0.0000   0.3155
   8.500   1.3639   0.04219   0.03135  -0.1035  0.3244  1.0000  -2.6004   0.0000   0.0000   0.0000   0.3101
   9.000   1.3994   0.04440   0.03349  -0.1005  0.3116  1.0000  -2.7035   0.0000   0.0000   0.0000   0.3052
   9.500   1.4170   0.04737   0.03658  -0.0955  0.3006  1.0000  -2.7758   0.0000   0.0000   0.0000   0.3000
  10.000   1.4109   0.05139   0.04089  -0.0885  0.2909  1.0000  -2.8136   0.0000   0.0000   0.0000   0.2944
  10.500   1.3739   0.05746   0.04737  -0.0803  0.2822  1.0000  -2.7943   0.0000   0.0000   0.0000   0.2893
  11.000   1.2705   0.07048   0.06098  -0.0735  0.2745  1.0000  -2.6340   0.0000   0.0000   0.0000   0.2878
  12.000   0.9649   0.13236   0.12361  -0.0948  0.2450  1.0000  -1.8475   0.0000   0.0000   0.0000   0.3283
  12.500   0.9562   0.14276   0.13413  -0.0988  0.2369  1.0000  -1.7919   0.0000   0.0000   0.0000   0.3328
  13.000   0.9401   0.15486   0.14630  -0.1045  0.2323  1.0000  -1.6936   0.0000   0.0000   0.0000   0.3402
  13.500   0.9536   0.16166   0.15312  -0.1066  0.2259  1.0000  -1.7055   0.0000   0.0000   0.0000   0.3402
  14.000   0.9494   0.17127   0.16278  -0.1115  0.2220  1.0000  -1.6511   0.0000   0.0000   0.0000   0.3452
  14.500   0.9511   0.18028   0.17184  -0.1160  0.2222  1.0000  -1.6068   0.0000   0.0000   0.0000   0.3492
  15.000   0.9541   0.18830   0.17991  -0.1205  0.2203  1.0000  -1.5905   0.0000   0.0000   0.0000   0.3529
  15.500   0.9736   0.19620   0.18785  -0.1233  0.2243  1.0000  -1.6227   0.0000   0.0000   0.0000   0.3525
  17.500   1.0154   0.22691   0.21877  -0.1401  0.2353  1.0000  -1.5878   0.0000   0.0000   0.0000   0.3606
  18.000   1.0206   0.23118   0.22308  -0.1446  0.2272  1.0000  -1.5630   0.0000   0.0000   0.0000   0.3633
  18.500   1.0355   0.23631   0.22829  -0.1477  0.2176  1.0000  -1.5707   0.0000   0.0000   0.0000   0.3632
  19.000   1.0549   0.24249   0.23451  -0.1504  0.2125  1.0000  -1.5868   0.0000   0.0000   0.0000   0.3621
  19.500   1.0705   0.24759   0.23965  -0.1536  0.2048  1.0000  -1.5868   0.0000   0.0000   0.0000   0.3619
  20.000   1.0818   0.25288   0.24497  -0.1578  0.1992  1.0000  -1.5604   0.0000   0.0000   0.0000   0.3632


