xflr5 v6.61

 Calculated polar for: E63_4_27

 1 1 Reynolds number fixed          Mach number fixed         

 xtrf =   1.000 (top)        1.000 (bottom)
 Mach =   0.200     Re =     0.090 e 6     Ncrit =   9.000

  alpha     CL        CD       CDp       Cm    Top Xtr Bot Xtr   Cpmin    Chinge    XCp    
 ------- -------- --------- --------- -------- ------- ------- -------- --------- ---------
 -10.000  -0.3879   0.13704   0.13153  -0.0215  1.0000  0.0370  -1.3233   0.0000   0.0000   0.0000   0.1924
  -9.750  -0.3871   0.13576   0.13030  -0.0223  1.0000  0.0372  -1.3535   0.0000   0.0000   0.0000   0.1903
  -9.500  -0.3875   0.13465   0.12926  -0.0230  1.0000  0.0373  -1.3860   0.0000   0.0000   0.0000   0.1886
  -9.250  -0.3888   0.13362   0.12828  -0.0237  1.0000  0.0374  -1.4196   0.0000   0.0000   0.0000   0.1873
  -9.000  -0.3712   0.12498   0.11958  -0.0214  1.0000  0.0386  -1.2580   0.0000   0.0000   0.0000   0.1902
  -8.750  -0.3666   0.12195   0.11659  -0.0210  1.0000  0.0397  -1.2163   0.0000   0.0000   0.0000   0.1907
  -8.500  -0.3631   0.11936   0.11404  -0.0207  1.0000  0.0408  -1.1908   0.0000   0.0000   0.0000   0.1909
  -8.250  -0.3604   0.11696   0.11168  -0.0205  1.0000  0.0419  -1.1857   0.0000   0.0000   0.0000   0.1911
  -6.250  -0.3648   0.10048   0.09571  -0.0141  1.0000  0.0491  -1.2759   0.0000   0.0000   0.0000   0.2099
  -6.000  -0.3635   0.09820   0.09348  -0.0136  1.0000  0.0508  -1.2711   0.0000   0.0000   0.0000   0.2113
  -5.750  -0.3617   0.09602   0.09137  -0.0137  1.0000  0.0527  -1.2814   0.0000   0.0000   0.0000   0.2107
  -5.500  -0.3579   0.09413   0.08953  -0.0157  1.0000  0.0546  -1.3171   0.0000   0.0000   0.0000   0.2050
  -5.250  -0.3458   0.09279   0.08825  -0.0229  1.0000  0.0556  -1.4091   0.0000   0.0000   0.0000   0.1824
  -4.750  -0.3388   0.08551   0.08106  -0.0185  1.0000  0.0587  -1.3238   0.0000   0.0000   0.0000   0.1939
  -4.500  -0.3292   0.08267   0.07826  -0.0199  1.0000  0.0614  -1.3118   0.0000   0.0000   0.0000   0.1882
  -4.250  -0.3046   0.07985   0.07544  -0.0282  1.0000  0.0651  -1.3650   0.0000   0.0000   0.0000   0.1558
  -4.000  -0.2839   0.07609   0.07169  -0.0335  1.0000  0.0666  -1.3882   0.0000   0.0000   0.0000   0.1303
  -3.750  -0.2782   0.07295   0.06853  -0.0312  1.0000  0.0692  -1.3282   0.0000   0.0000   0.0000   0.1362
  -3.500  -0.2206   0.06880   0.06424  -0.0486  1.0000  0.0761  -1.4108   0.0000   0.0000   0.0000   0.0275
  -3.250  -0.2222   0.06558   0.06112  -0.0433  1.0000  0.0784  -1.3287   0.0000   0.0000   0.0000   0.0528
  -3.000  -0.1695   0.06121   0.05661  -0.0563  1.0000  0.0873  -1.3543   0.0000   0.0000   0.0000  -0.0852
  -2.750  -0.1556   0.05819   0.05362  -0.0556  1.0000  0.0928  -1.2866   0.0000   0.0000   0.0000  -0.1103
  -2.500  -0.0865   0.05340   0.04860  -0.0715  1.0000  0.1085  -1.2989   0.0000   0.0000   0.0000  -0.5821
  -1.000   0.2664   0.03036   0.02320  -0.1236  1.0000  0.0971  -1.1274   0.0000   0.0000   0.0000   0.7149
  -0.750   0.3263   0.02686   0.01911  -0.1293  1.0000  0.0704  -1.2258   0.0000   0.0000   0.0000   0.6470
  -0.500   0.3738   0.02509   0.01668  -0.1325  1.0000  0.0636  -1.2904   0.0000   0.0000   0.0000   0.6047
  -0.250   0.4123   0.02402   0.01517  -0.1341  1.0000  0.0657  -1.3098   0.0000   0.0000   0.0000   0.5752
   0.000   0.4508   0.02300   0.01417  -0.1362  1.0000  0.0792  -1.2687   0.0000   0.0000   0.0000   0.5519
   0.250   0.4931   0.02216   0.01332  -0.1387  1.0000  0.1091  -1.2642   0.0000   0.0000   0.0000   0.5307
   0.500   0.5301   0.01993   0.01289  -0.1399  1.0000  1.0000  -1.2064   0.0000   0.0000   0.0000   0.5132
   0.750   0.5532   0.02054   0.01320  -0.1395  1.0000  1.0000  -0.9781   0.0000   0.0000   0.0000   0.5013
   1.000   0.5755   0.02121   0.01365  -0.1392  1.0000  1.0000  -0.7518   0.0000   0.0000   0.0000   0.4907
   1.250   0.5971   0.02194   0.01424  -0.1388  1.0000  1.0000  -0.5613   0.0000   0.0000   0.0000   0.4811
   1.500   0.6179   0.02275   0.01495  -0.1385  1.0000  1.0000  -0.5851   0.0000   0.0000   0.0000   0.4725
   1.750   0.6401   0.02365   0.01578  -0.1386  0.9987  1.0000  -0.6111   0.0000   0.0000   0.0000   0.4646
   2.000   0.6901   0.02443   0.01651  -0.1437  0.9847  1.0000  -0.6633   0.0000   0.0000   0.0000   0.4561
   2.250   0.7390   0.02491   0.01695  -0.1482  0.9714  1.0000  -0.7246   0.0000   0.0000   0.0000   0.4482
   2.500   0.7845   0.02513   0.01721  -0.1519  0.9564  1.0000  -0.7854   0.0000   0.0000   0.0000   0.4411
   2.750   0.8340   0.02511   0.01729  -0.1560  0.9427  1.0000  -0.8619   0.0000   0.0000   0.0000   0.4342
   3.000   0.8797   0.02491   0.01721  -0.1591  0.9267  1.0000  -0.9413   0.0000   0.0000   0.0000   0.4278
   3.250   0.9293   0.02443   0.01688  -0.1624  0.9118  1.0000  -1.0595   0.0000   0.0000   0.0000   0.4215
   3.500   0.9750   0.02378   0.01649  -0.1648  0.8941  1.0000  -1.2247   0.0000   0.0000   0.0000   0.4154
   3.750   1.0297   0.02255   0.01553  -0.1680  0.8785  1.0000  -1.5277   0.0000   0.0000   0.0000   0.4093
   4.000   1.0778   0.02114   0.01441  -0.1695  0.8581  1.0000  -1.8455   0.0000   0.0000   0.0000   0.4032
   4.250   1.1261   0.01962   0.01329  -0.1706  0.8331  1.0000  -2.1797   0.0000   0.0000   0.0000   0.3972
   4.500   1.1796   0.01793   0.01194  -0.1722  0.7904  1.0000  -2.5496   0.0000   0.0000   0.0000   0.3913
   4.750   1.2358   0.01674   0.01052  -0.1734  0.6652  1.0000  -2.9434   0.0000   0.0000   0.0000   0.3853
   5.000   1.2601   0.01778   0.01083  -0.1706  0.5084  1.0000  -3.1813   0.0000   0.0000   0.0000   0.3801
   5.250   1.2704   0.01950   0.01176  -0.1666  0.3679  1.0000  -3.3668   0.0000   0.0000   0.0000   0.3755
   5.500   1.2759   0.02210   0.01326  -0.1625  0.1967  1.0000  -3.5080   0.0000   0.0000   0.0000   0.3714
   5.750   1.2804   0.02597   0.01607  -0.1580  0.0895  1.0000  -3.5097   0.0000   0.0000   0.0000   0.3672
   6.000   1.2955   0.02829   0.01832  -0.1550  0.0711  1.0000  -3.6115   0.0000   0.0000   0.0000   0.3632
   6.250   1.3144   0.03045   0.02048  -0.1529  0.0602  1.0000  -3.7812   0.0000   0.0000   0.0000   0.3595
   6.500   1.3407   0.03339   0.02338  -0.1520  0.0556  1.0000  -4.1099   0.0000   0.0000   0.0000   0.3562
   6.750   1.3736   0.03650   0.02682  -0.1515  0.0528  1.0000  -4.4368   0.0000   0.0000   0.0000   0.3528
   7.000   1.4046   0.04019   0.03094  -0.1507  0.0516  1.0000  -4.7221   0.0000   0.0000   0.0000   0.3495
   7.250   1.4296   0.04441   0.03575  -0.1490  0.0518  1.0000  -4.9189   0.0000   0.0000   0.0000   0.3461
   7.500   1.4470   0.04894   0.04105  -0.1462  0.0522  1.0000  -5.0348   0.0000   0.0000   0.0000   0.3427
   7.750   1.4582   0.05300   0.04566  -0.1431  0.0505  1.0000  -5.1702   0.0000   0.0000   0.0000   0.3395
   8.000   1.4672   0.05726   0.05033  -0.1402  0.0491  1.0000  -5.3131   0.0000   0.0000   0.0000   0.3367
   8.250   1.4635   0.06304   0.05694  -0.1354  0.0516  1.0000  -5.1846   0.0000   0.0000   0.0000   0.3334
   8.500   1.4585   0.06868   0.06310  -0.1314  0.0537  1.0000  -5.1268   0.0000   0.0000   0.0000   0.3308
   8.750   1.4565   0.07449   0.06917  -0.1285  0.0556  1.0000  -5.1364   0.0000   0.0000   0.0000   0.3286
   9.000   1.4344   0.07984   0.07517  -0.1234  0.0598  1.0000  -4.9091   0.0000   0.0000   0.0000   0.3263
   9.250   1.4089   0.08497   0.08064  -0.1191  0.0620  1.0000  -4.7614   0.0000   0.0000   0.0000   0.3246
   9.500   1.3882   0.08992   0.08580  -0.1161  0.0637  1.0000  -4.6839   0.0000   0.0000   0.0000   0.3234
   9.750   1.3706   0.09570   0.09180  -0.1144  0.0684  1.0000  -4.5703   0.0000   0.0000   0.0000   0.3230
  10.000   1.3395   0.10149   0.09780  -0.1143  0.0690  1.0000  -4.4153   0.0000   0.0000   0.0000   0.3246
  10.250   1.3106   0.10850   0.10496  -0.1170  0.0695  1.0000  -4.2472   0.0000   0.0000   0.0000   0.3282
  10.500   1.2809   0.11771   0.11417  -0.1234  0.0707  1.0000  -4.0097   0.0000   0.0000   0.0000   0.3350


