xflr5 v6.61

 Calculated polar for: NACA4412_7_00

 1 1 Reynolds number fixed          Mach number fixed         

 xtrf =   1.000 (top)        1.000 (bottom)
 Mach =   0.200     Re =     0.050 e 6     Ncrit =   9.000

  alpha     CL        CD       CDp       Cm    Top Xtr Bot Xtr   Cpmin    Chinge    XCp    
 ------- -------- --------- --------- -------- ------- ------- -------- --------- ---------
 -22.000  -0.7358   0.27510   0.26712   0.0484  1.0000  0.0422  -1.5024   0.0000   0.0000   0.0000   0.3038
 -21.500  -0.7183   0.26905   0.26105   0.0443  1.0000  0.0442  -1.4717   0.0000   0.0000   0.0000   0.3002
 -21.000  -0.7012   0.26401   0.25602   0.0397  1.0000  0.0458  -1.4659   0.0000   0.0000   0.0000   0.2957
 -20.500  -0.6840   0.25778   0.24979   0.0356  1.0000  0.0468  -1.4605   0.0000   0.0000   0.0000   0.2916
 -20.000  -0.6659   0.25087   0.24286   0.0321  1.0000  0.0491  -1.4389   0.0000   0.0000   0.0000   0.2882
 -19.500  -0.6491   0.24567   0.23767   0.0278  1.0000  0.0515  -1.4604   0.0000   0.0000   0.0000   0.2832
 -19.000  -0.6316   0.23903   0.23105   0.0241  1.0000  0.0531  -1.4568   0.0000   0.0000   0.0000   0.2790
 -18.500  -0.6140   0.23265   0.22465   0.0206  1.0000  0.0563  -1.4414   0.0000   0.0000   0.0000   0.2748
 -18.000  -0.5995   0.22880   0.22083   0.0160  1.0000  0.0580  -1.4836   0.0000   0.0000   0.0000   0.2683
 -17.500  -0.5801   0.22019   0.21222   0.0135  1.0000  0.0606  -1.4304   0.0000   0.0000   0.0000   0.2651
 -17.000  -0.5642   0.21469   0.20674   0.0098  1.0000  0.0636  -1.4326   0.0000   0.0000   0.0000   0.2596
 -16.500  -0.5481   0.20829   0.20037   0.0064  1.0000  0.0655  -1.4253   0.0000   0.0000   0.0000   0.2543
 -16.000  -0.5311   0.20166   0.19375   0.0035  1.0000  0.0692  -1.3937   0.0000   0.0000   0.0000   0.2495
 -15.500  -0.5197   0.19761   0.18975  -0.0006  1.0000  0.0713  -1.4249   0.0000   0.0000   0.0000   0.2421
 -15.000  -0.5002   0.18904   0.18117  -0.0024  1.0000  0.0755  -1.3533   0.0000   0.0000   0.0000   0.2385
 -14.500  -0.4895   0.18449   0.17668  -0.0061  1.0000  0.0785  -1.3913   0.0000   0.0000   0.0000   0.2312
 -14.000  -0.4723   0.17701   0.16921  -0.0081  1.0000  0.0841  -1.3723   0.0000   0.0000   0.0000   0.2267
 -13.500  -0.4583   0.17036   0.16261  -0.0105  1.0000  0.0879  -1.3800   0.0000   0.0000   0.0000   0.2211
 -13.000  -0.4494   0.16573   0.15803  -0.0136  1.0000  0.0926  -1.4203   0.0000   0.0000   0.0000   0.2140
 -12.500  -0.4324   0.15782   0.15013  -0.0150  1.0000  0.0975  -1.3946   0.0000   0.0000   0.0000   0.2096
 -12.000  -0.4253   0.15285   0.14525  -0.0179  1.0000  0.1015  -1.4363   0.0000   0.0000   0.0000   0.2025
 -11.500  -0.4125   0.14632   0.13876  -0.0196  1.0000  0.1080  -1.4261   0.0000   0.0000   0.0000   0.1973
 -11.000  -0.3988   0.13928   0.13178  -0.0209  1.0000  0.1136  -1.4086   0.0000   0.0000   0.0000   0.1924
 -10.500  -0.3906   0.13348   0.12605  -0.0229  1.0000  0.1194  -1.4195   0.0000   0.0000   0.0000   0.1866
 -10.000  -0.3917   0.12999   0.12269  -0.0257  1.0000  0.1260  -1.4704   0.0000   0.0000   0.0000   0.1800
  -9.750  -0.3764   0.12455   0.11725  -0.0248  1.0000  0.1325  -1.4029   0.0000   0.0000   0.0000   0.1796
  -9.500  -0.3831   0.12391   0.11671  -0.0267  1.0000  0.1349  -1.4569   0.0000   0.0000   0.0000   0.1760
  -9.250  -0.3686   0.11874   0.11155  -0.0258  1.0000  0.1415  -1.3921   0.0000   0.0000   0.0000   0.1756
  -9.000  -0.3767   0.11818   0.11110  -0.0276  1.0000  0.1441  -1.4463   0.0000   0.0000   0.0000   0.1728
  -8.750  -0.3619   0.11307   0.10600  -0.0265  1.0000  0.1507  -1.3794   0.0000   0.0000   0.0000   0.1727
  -8.500  -0.3718   0.11258   0.10565  -0.0279  1.0000  0.1535  -1.4332   0.0000   0.0000   0.0000   0.1712
  -8.250  -0.3571   0.10760   0.10068  -0.0267  1.0000  0.1600  -1.3931   0.0000   0.0000   0.0000   0.1713
  -8.000  -0.3695   0.10723   0.10046  -0.0275  1.0000  0.1632  -1.4493   0.0000   0.0000   0.0000   0.1720
  -7.750  -0.3559   0.10255   0.09577  -0.0262  1.0000  0.1702  -1.4136   0.0000   0.0000   0.0000   0.1727
  -7.500  -0.3725   0.10244   0.09584  -0.0262  1.0000  0.1731  -1.4702   0.0000   0.0000   0.0000   0.1767
  -7.250  -0.3598   0.09799   0.09142  -0.0247  1.0000  0.1807  -1.4355   0.0000   0.0000   0.0000   0.1782
  -7.000  -0.3784   0.09798   0.09161  -0.0253  1.0000  0.1835  -1.4992   0.0000   0.0000   0.0000   0.1805
  -6.750  -0.3678   0.09377   0.08743  -0.0229  1.0000  0.1919  -1.4613   0.0000   0.0000   0.0000   0.1850
  -6.500  -0.3671   0.09094   0.08469  -0.0219  1.0000  0.1980  -1.4604   0.0000   0.0000   0.0000   0.1878
  -6.250  -0.3787   0.09019   0.08407  -0.0239  1.0000  0.2045  -1.5117   0.0000   0.0000   0.0000   0.1848
  -6.000  -0.3749   0.08699   0.08095  -0.0218  1.0000  0.2146  -1.4912   0.0000   0.0000   0.0000   0.1896
  -5.750  -0.3732   0.08416   0.07819  -0.0204  1.0000  0.2248  -1.4798   0.0000   0.0000   0.0000   0.1934
  -5.500  -0.3727   0.08156   0.07567  -0.0194  1.0000  0.2357  -1.4746   0.0000   0.0000   0.0000   0.1961
  -5.250  -0.3726   0.07913   0.07330  -0.0190  1.0000  0.2477  -1.4740   0.0000   0.0000   0.0000   0.1973
  -5.000  -0.3727   0.07707   0.07130  -0.0207  1.0000  0.2612  -1.4888   0.0000   0.0000   0.0000   0.1928
  -4.750  -0.3686   0.07379   0.06809  -0.0181  1.0000  0.2744  -1.4611   0.0000   0.0000   0.0000   0.1993
  -4.500  -0.3643   0.07085   0.06518  -0.0158  1.0000  0.2893  -1.4347   0.0000   0.0000   0.0000   0.2049
  -4.250  -0.3601   0.06843   0.06279  -0.0166  1.0000  0.3109  -1.4269   0.0000   0.0000   0.0000   0.2024
  -4.000  -0.3553   0.06548   0.05990  -0.0134  1.0000  0.3304  -1.3906   0.0000   0.0000   0.0000   0.2109
  -3.500  -0.3488   0.06023   0.05478  -0.0077  1.0000  0.3935  -1.3242   0.0000   0.0000   0.0000   0.2265
  -2.500  -0.1271   0.03824   0.03027  -0.0596  1.0000  0.1612  -1.6437   0.0000   0.0000   0.0000  -0.2225
  -2.250  -0.0885   0.03476   0.02608  -0.0627  1.0000  0.1517  -1.6593   0.0000   0.0000   0.0000  -0.4623
  -2.000  -0.0545   0.03219   0.02292  -0.0644  1.0000  0.1521  -1.6315   0.0000   0.0000   0.0000  -0.9377
  -1.750  -0.0246   0.03026   0.02061  -0.0652  1.0000  0.1580  -1.5658   0.0000   0.0000   0.0000  -2.4103
  -1.500   0.0041   0.02875   0.01871  -0.0656  1.0000  0.1689  -1.4970   0.0000   0.0000   0.0000  16.2683
  -1.250   0.0321   0.02754   0.01708  -0.0659  1.0000  0.1838  -1.4411   0.0000   0.0000   0.0000   2.3082
  -1.000   0.0573   0.02661   0.01601  -0.0657  1.0000  0.2059  -1.3580   0.0000   0.0000   0.0000   1.4020
  -0.750   0.0835   0.02588   0.01517  -0.0657  1.0000  0.2398  -1.2618   0.0000   0.0000   0.0000   1.0392
  -0.500   0.1110   0.02516   0.01448  -0.0659  1.0000  0.2962  -1.1609   0.0000   0.0000   0.0000   0.8445
  -0.250   0.1449   0.02354   0.01370  -0.0671  1.0000  0.4492  -1.0615   0.0000   0.0000   0.0000   0.7137
   0.000   0.1586   0.02213   0.01318  -0.0644  1.0000  1.0000  -1.0046   0.0000   0.0000   0.0000   0.6560
   0.250   0.1788   0.02287   0.01342  -0.0642  1.0000  1.0000  -0.8909   0.0000   0.0000   0.0000   0.6088
   0.500   0.1979   0.02367   0.01391  -0.0641  1.0000  1.0000  -0.7838   0.0000   0.0000   0.0000   0.5732
   0.750   0.2294   0.02471   0.01465  -0.0664  0.9943  1.0000  -0.6545   0.0000   0.0000   0.0000   0.5385
   1.000   0.2804   0.02598   0.01559  -0.0721  0.9800  1.0000  -0.4911   0.0000   0.0000   0.0000   0.5061
   1.250   0.3265   0.02710   0.01649  -0.0769  0.9648  1.0000  -0.4993   0.0000   0.0000   0.0000   0.4841
   1.500   0.3674   0.02811   0.01735  -0.0806  0.9493  1.0000  -0.5232   0.0000   0.0000   0.0000   0.4677
   1.750   0.4125   0.02913   0.01825  -0.0848  0.9354  1.0000  -0.5509   0.0000   0.0000   0.0000   0.4538
   2.000   0.4464   0.03003   0.01909  -0.0870  0.9197  1.0000  -0.5724   0.0000   0.0000   0.0000   0.4429
   2.250   0.4840   0.03094   0.01996  -0.0897  0.9054  1.0000  -0.5976   0.0000   0.0000   0.0000   0.4331
   2.500   0.5222   0.03182   0.02085  -0.0924  0.8917  1.0000  -0.6245   0.0000   0.0000   0.0000   0.4245
   2.750   0.5596   0.03268   0.02172  -0.0948  0.8784  1.0000  -0.6523   0.0000   0.0000   0.0000   0.4167
   3.000   0.5881   0.03358   0.02266  -0.0957  0.8642  1.0000  -0.6753   0.0000   0.0000   0.0000   0.4099
   3.250   0.6175   0.03450   0.02363  -0.0967  0.8504  1.0000  -0.7004   0.0000   0.0000   0.0000   0.4036
   3.500   0.6471   0.03542   0.02466  -0.0977  0.8369  1.0000  -0.7279   0.0000   0.0000   0.0000   0.3978
   3.750   0.6764   0.03635   0.02569  -0.0986  0.8235  1.0000  -0.7700   0.0000   0.0000   0.0000   0.3923
   4.000   0.7054   0.03729   0.02675  -0.0993  0.8102  1.0000  -0.8710   0.0000   0.0000   0.0000   0.3872
   4.250   0.7339   0.03824   0.02788  -0.0999  0.7969  1.0000  -0.9896   0.0000   0.0000   0.0000   0.3823
   4.500   0.7621   0.03920   0.02901  -0.1004  0.7834  1.0000  -1.1214   0.0000   0.0000   0.0000   0.3777
   4.750   0.7897   0.04017   0.03017  -0.1007  0.7696  1.0000  -1.2662   0.0000   0.0000   0.0000   0.3732
   5.000   0.8165   0.04116   0.03136  -0.1007  0.7554  1.0000  -1.4221   0.0000   0.0000   0.0000   0.3689
   5.250   0.8423   0.04216   0.03263  -0.1006  0.7405  1.0000  -1.5888   0.0000   0.0000   0.0000   0.3647
   5.500   0.8681   0.04312   0.03384  -0.1002  0.7249  1.0000  -1.7740   0.0000   0.0000   0.0000   0.3605
   5.750   0.8973   0.04384   0.03487  -0.0999  0.7083  1.0000  -1.9898   0.0000   0.0000   0.0000   0.3562
   6.000   0.9432   0.04335   0.03487  -0.1001  0.6903  1.0000  -2.2936   0.0000   0.0000   0.0000   0.3507
   6.250   1.0752   0.02785   0.02022  -0.0900  0.5899  1.0000  -3.2182   0.0000   0.0000   0.0000   0.3278
   6.500   1.0836   0.02537   0.01760  -0.0800  0.4838  1.0000  -3.3901   0.0000   0.0000   0.0000   0.3175
   6.750   1.0633   0.02696   0.01766  -0.0703  0.2636  1.0000  -3.3608   0.0000   0.0000   0.0000   0.3094
   7.000   1.0558   0.03064   0.02014  -0.0656  0.1828  1.0000  -3.3560   0.0000   0.0000   0.0000   0.3051
   7.250   1.0647   0.03349   0.02263  -0.0625  0.1490  1.0000  -3.4109   0.0000   0.0000   0.0000   0.3015
   7.500   1.0906   0.03627   0.02512  -0.0612  0.1256  1.0000  -3.5270   0.0000   0.0000   0.0000   0.2986
   7.750   1.1341   0.03947   0.02823  -0.0618  0.1085  1.0000  -3.7017   0.0000   0.0000   0.0000   0.2966
   8.000   1.1762   0.04322   0.03213  -0.0624  0.1003  1.0000  -3.8807   0.0000   0.0000   0.0000   0.2949
   8.250   1.2004   0.04660   0.03602  -0.0610  0.0950  1.0000  -3.9850   0.0000   0.0000   0.0000   0.2924
   8.500   1.2218   0.05051   0.04029  -0.0597  0.0917  1.0000  -4.0781   0.0000   0.0000   0.0000   0.2902
   8.750   1.2364   0.05462   0.04496  -0.0576  0.0915  1.0000  -4.1131   0.0000   0.0000   0.0000   0.2877
   9.000   1.2466   0.05894   0.04981  -0.0554  0.0920  1.0000  -4.1335   0.0000   0.0000   0.0000   0.2853
   9.250   1.2514   0.06332   0.05464  -0.0531  0.0924  1.0000  -4.1402   0.0000   0.0000   0.0000   0.2831
   9.500   1.2518   0.06774   0.05947  -0.0507  0.0926  1.0000  -4.1357   0.0000   0.0000   0.0000   0.2810
   9.750   1.2480   0.07218   0.06430  -0.0484  0.0931  1.0000  -4.1188   0.0000   0.0000   0.0000   0.2790
  10.000   1.2144   0.07603   0.06878  -0.0447  0.0963  1.0000  -3.9624   0.0000   0.0000   0.0000   0.2768
  10.250   1.1936   0.08026   0.07327  -0.0423  0.0979  1.0000  -3.8921   0.0000   0.0000   0.0000   0.2753
  10.500   1.1751   0.08481   0.07800  -0.0410  0.0992  1.0000  -3.8334   0.0000   0.0000   0.0000   0.2744
  10.750   1.1616   0.08983   0.08314  -0.0406  0.1003  1.0000  -3.7900   0.0000   0.0000   0.0000   0.2743
  11.000   1.1073   0.09669   0.09024  -0.0441  0.1046  1.0000  -3.5452   0.0000   0.0000   0.0000   0.2789
  11.250   1.0837   0.10404   0.09765  -0.0478  0.1072  1.0000  -3.4200   0.0000   0.0000   0.0000   0.2830
  11.500   1.0493   0.11408   0.10774  -0.0554  0.1111  1.0000  -3.1923   0.0000   0.0000   0.0000   0.2915
  11.750   1.0306   0.12399   0.11761  -0.0616  0.1163  1.0000  -3.0108   0.0000   0.0000   0.0000   0.2985
  12.000   1.0147   0.13466   0.12822  -0.0685  0.1254  1.0000  -2.8007   0.0000   0.0000   0.0000   0.3061
  12.500   0.7672   0.15406   0.14790  -0.0758  0.2729  1.0000  -1.5653   0.0000   0.0000   0.0000   0.3392
  13.000   0.7451   0.15862   0.15246  -0.0784  0.2695  1.0000  -1.4537   0.0000   0.0000   0.0000   0.3453
  13.500   0.7564   0.16680   0.16069  -0.0796  0.2606  1.0000  -1.4585   0.0000   0.0000   0.0000   0.3449
  14.000   0.7595   0.17342   0.16734  -0.0812  0.2489  1.0000  -1.4419   0.0000   0.0000   0.0000   0.3461
  14.500   0.7537   0.17805   0.17199  -0.0834  0.2350  1.0000  -1.3948   0.0000   0.0000   0.0000   0.3494
  15.000   0.7579   0.18406   0.17802  -0.0851  0.2196  1.0000  -1.3792   0.0000   0.0000   0.0000   0.3505
  15.500   0.7644   0.19069   0.18469  -0.0870  0.2076  1.0000  -1.3650   0.0000   0.0000   0.0000   0.3514
  16.000   0.7742   0.19787   0.19193  -0.0885  0.1951  1.0000  -1.3611   0.0000   0.0000   0.0000   0.3514
  16.500   0.7818   0.20495   0.19904  -0.0904  0.1829  1.0000  -1.3455   0.0000   0.0000   0.0000   0.3521
  17.000   0.7830   0.21049   0.20459  -0.0930  0.1714  1.0000  -1.3016   0.0000   0.0000   0.0000   0.3548
  17.500   0.7888   0.21710   0.21124  -0.0954  0.1614  1.0000  -1.3038   0.0000   0.0000   0.0000   0.3562
  18.000   0.7957   0.22401   0.21819  -0.0976  0.1521  1.0000  -1.3093   0.0000   0.0000   0.0000   0.3574
  18.500   0.8030   0.23112   0.22535  -0.0999  0.1431  1.0000  -1.3135   0.0000   0.0000   0.0000   0.3584
  19.000   0.8093   0.23798   0.23225  -0.1024  0.1339  1.0000  -1.3091   0.0000   0.0000   0.0000   0.3598
  19.500   0.8159   0.24503   0.23934  -0.1048  0.1251  1.0000  -1.3031   0.0000   0.0000   0.0000   0.3611
  20.000   0.8252   0.25296   0.24732  -0.1070  0.1171  1.0000  -1.3101   0.0000   0.0000   0.0000   0.3614


