xflr5 v6.61

 Calculated polar for: NACA4412_6_80

 1 1 Reynolds number fixed          Mach number fixed         

 xtrf =   1.000 (top)        1.000 (bottom)
 Mach =   0.200     Re =     0.050 e 6     Ncrit =   7.000

  alpha     CL        CD       CDp       Cm    Top Xtr Bot Xtr   Cpmin    Chinge    XCp    
 ------- -------- --------- --------- -------- ------- ------- -------- --------- ---------
 -29.000  -0.9669   0.35411   0.34647   0.1157  1.0000  0.0227  -1.6824   0.0000   0.0000   0.0000   0.3477
 -28.500  -0.9524   0.34853   0.34086   0.1108  1.0000  0.0234  -1.6439   0.0000   0.0000   0.0000   0.3454
 -28.000  -0.9375   0.34318   0.33547   0.1058  1.0000  0.0242  -1.6140   0.0000   0.0000   0.0000   0.3428
 -27.500  -0.9221   0.33787   0.33011   0.1008  1.0000  0.0251  -1.5954   0.0000   0.0000   0.0000   0.3402
 -27.000  -0.9065   0.33268   0.32490   0.0958  1.0000  0.0258  -1.6086   0.0000   0.0000   0.0000   0.3373
 -26.500  -0.8905   0.32793   0.32012   0.0906  1.0000  0.0263  -1.6347   0.0000   0.0000   0.0000   0.3342
 -26.000  -0.8746   0.32219   0.31437   0.0858  1.0000  0.0266  -1.6397   0.0000   0.0000   0.0000   0.3313
 -25.500  -0.8585   0.31577   0.30791   0.0814  1.0000  0.0276  -1.6099   0.0000   0.0000   0.0000   0.3288
 -25.000  -0.8421   0.31003   0.30214   0.0768  1.0000  0.0287  -1.5996   0.0000   0.0000   0.0000   0.3258
 -24.500  -0.8254   0.30453   0.29662   0.0720  1.0000  0.0300  -1.6014   0.0000   0.0000   0.0000   0.3226
 -24.000  -0.8086   0.29992   0.29199   0.0669  1.0000  0.0308  -1.6265   0.0000   0.0000   0.0000   0.3188
 -23.500  -0.7917   0.29304   0.28511   0.0628  1.0000  0.0316  -1.5944   0.0000   0.0000   0.0000   0.3160
 -23.000  -0.7745   0.28692   0.27895   0.0585  1.0000  0.0331  -1.5651   0.0000   0.0000   0.0000   0.3128
 -22.500  -0.7573   0.28119   0.27321   0.0541  1.0000  0.0345  -1.5531   0.0000   0.0000   0.0000   0.3092
 -22.000  -0.7401   0.27615   0.26816   0.0493  1.0000  0.0354  -1.5601   0.0000   0.0000   0.0000   0.3051
 -21.500  -0.7228   0.26977   0.26178   0.0452  1.0000  0.0361  -1.5367   0.0000   0.0000   0.0000   0.3014
 -21.000  -0.7051   0.26309   0.25509   0.0414  1.0000  0.0378  -1.4875   0.0000   0.0000   0.0000   0.2981
 -20.500  -0.6876   0.25721   0.24920   0.0372  1.0000  0.0396  -1.4633   0.0000   0.0000   0.0000   0.2940
 -20.000  -0.6708   0.25237   0.24436   0.0326  1.0000  0.0406  -1.4860   0.0000   0.0000   0.0000   0.2890
 -19.500  -0.6528   0.24498   0.23698   0.0292  1.0000  0.0419  -1.4651   0.0000   0.0000   0.0000   0.2855
 -19.000  -0.6351   0.23869   0.23069   0.0255  1.0000  0.0443  -1.4557   0.0000   0.0000   0.0000   0.2813
 -18.500  -0.6191   0.23403   0.22603   0.0210  1.0000  0.0461  -1.4946   0.0000   0.0000   0.0000   0.2755
 -18.000  -0.6009   0.22636   0.21837   0.0181  1.0000  0.0481  -1.4570   0.0000   0.0000   0.0000   0.2720
 -17.500  -0.5840   0.22039   0.21241   0.0145  1.0000  0.0508  -1.4529   0.0000   0.0000   0.0000   0.2670
 -17.000  -0.5699   0.21613   0.20818   0.0100  1.0000  0.0520  -1.4946   0.0000   0.0000   0.0000   0.2602
 -16.500  -0.5506   0.20763   0.19968   0.0078  1.0000  0.0545  -1.4285   0.0000   0.0000   0.0000   0.2570
 -16.000  -0.5353   0.20199   0.19406   0.0042  1.0000  0.0573  -1.4283   0.0000   0.0000   0.0000   0.2510
 -15.500  -0.5199   0.19566   0.18777   0.0010  1.0000  0.0589  -1.4188   0.0000   0.0000   0.0000   0.2454
 -15.000  -0.5035   0.18892   0.18103  -0.0016  1.0000  0.0623  -1.3775   0.0000   0.0000   0.0000   0.2405
 -14.500  -0.4929   0.18464   0.17680  -0.0055  1.0000  0.0644  -1.4080   0.0000   0.0000   0.0000   0.2328
 -14.000  -0.4743   0.17634   0.16851  -0.0071  1.0000  0.0685  -1.3712   0.0000   0.0000   0.0000   0.2290
 -13.500  -0.4651   0.17173   0.16398  -0.0107  1.0000  0.0714  -1.4344   0.0000   0.0000   0.0000   0.2213
 -13.000  -0.4483   0.16412   0.15637  -0.0124  1.0000  0.0766  -1.4095   0.0000   0.0000   0.0000   0.2169
 -12.500  -0.4364   0.15785   0.15016  -0.0148  1.0000  0.0796  -1.4325   0.0000   0.0000   0.0000   0.2107
 -12.000  -0.4251   0.15198   0.14434  -0.0171  1.0000  0.0844  -1.4494   0.0000   0.0000   0.0000   0.2045
 -11.500  -0.4122   0.14517   0.13758  -0.0189  1.0000  0.0880  -1.4506   0.0000   0.0000   0.0000   0.1991
 -11.000  -0.4065   0.14043   0.13293  -0.0218  1.0000  0.0927  -1.4977   0.0000   0.0000   0.0000   0.1918
 -10.500  -0.3911   0.13293   0.12547  -0.0226  1.0000  0.0979  -1.4673   0.0000   0.0000   0.0000   0.1875
 -10.000  -0.3840   0.12726   0.11990  -0.0247  1.0000  0.1023  -1.4923   0.0000   0.0000   0.0000   0.1813
  -9.500  -0.3813   0.12274   0.11550  -0.0270  1.0000  0.1088  -1.5298   0.0000   0.0000   0.0000   0.1752
  -9.000  -0.3722   0.11654   0.10940  -0.0277  1.0000  0.1168  -1.5145   0.0000   0.0000   0.0000   0.1716
  -8.500  -0.3650   0.11064   0.10363  -0.0282  1.0000  0.1251  -1.5015   0.0000   0.0000   0.0000   0.1691
  -8.000  -0.3590   0.10485   0.09798  -0.0280  1.0000  0.1330  -1.4848   0.0000   0.0000   0.0000   0.1686
  -7.500  -0.3580   0.09961   0.09291  -0.0271  1.0000  0.1401  -1.4776   0.0000   0.0000   0.0000   0.1711
  -7.000  -0.3652   0.09524   0.08877  -0.0257  1.0000  0.1470  -1.5134   0.0000   0.0000   0.0000   0.1769
  -6.500  -0.3681   0.09044   0.08417  -0.0256  1.0000  0.1558  -1.5466   0.0000   0.0000   0.0000   0.1781
  -6.000  -0.3674   0.08527   0.07917  -0.0251  1.0000  0.1665  -1.5628   0.0000   0.0000   0.0000   0.1795
  -5.500  -0.3660   0.08049   0.07451  -0.0266  1.0000  0.1825  -1.5895   0.0000   0.0000   0.0000   0.1756
  -5.000  -0.3582   0.07480   0.06893  -0.0254  1.0000  0.2017  -1.5706   0.0000   0.0000   0.0000   0.1776
  -4.500  -0.3444   0.06927   0.06343  -0.0283  1.0000  0.2272  -1.5716   0.0000   0.0000   0.0000   0.1663
  -3.500  -0.2248   0.04851   0.04154  -0.0531  1.0000  0.1110  -1.8835   0.0000   0.0000   0.0000   0.0118
  -3.000  -0.1597   0.03998   0.03211  -0.0600  1.0000  0.0966  -1.9312   0.0000   0.0000   0.0000  -0.1287
  -2.500  -0.0945   0.03359   0.02461  -0.0643  1.0000  0.0967  -1.8988   0.0000   0.0000   0.0000  -0.4358
  -2.000  -0.0331   0.02933   0.01929  -0.0663  1.0000  0.1059  -1.7908   0.0000   0.0000   0.0000  -1.7687
  -1.500   0.0219   0.02675   0.01591  -0.0666  1.0000  0.1260  -1.6116   0.0000   0.0000   0.0000   3.3083
  -1.000   0.0722   0.02526   0.01411  -0.0662  1.0000  0.1637  -1.4163   0.0000   0.0000   0.0000   1.1702
  -0.500   0.1576   0.02373   0.01292  -0.0724  0.9874  0.3101  -1.1198   0.0000   0.0000   0.0000   0.7104
   0.000   0.2410   0.02199   0.01231  -0.0778  0.9654  1.0000  -0.7985   0.0000   0.0000   0.0000   0.5728
   0.500   0.3242   0.02307   0.01270  -0.0841  0.9394  1.0000  -0.4999   0.0000   0.0000   0.0000   0.5086
   1.000   0.4070   0.02401   0.01325  -0.0899  0.9141  1.0000  -0.5500   0.0000   0.0000   0.0000   0.4698
   1.500   0.4790   0.02485   0.01388  -0.0936  0.8864  1.0000  -0.5971   0.0000   0.0000   0.0000   0.4438
   2.000   0.5504   0.02559   0.01456  -0.0967  0.8598  1.0000  -0.6476   0.0000   0.0000   0.0000   0.4238
   2.500   0.6205   0.02626   0.01529  -0.0993  0.8341  1.0000  -0.7020   0.0000   0.0000   0.0000   0.4077
   3.000   0.6866   0.02691   0.01610  -0.1008  0.8089  1.0000  -0.7599   0.0000   0.0000   0.0000   0.3941
   3.500   0.7525   0.02747   0.01689  -0.1019  0.7848  1.0000  -0.9395   0.0000   0.0000   0.0000   0.3822
   4.000   0.8148   0.02809   0.01786  -0.1021  0.7600  1.0000  -1.2328   0.0000   0.0000   0.0000   0.3717
   5.000   0.9254   0.02981   0.02050  -0.1000  0.7057  1.0000  -1.9789   0.0000   0.0000   0.0000   0.3536
   5.500   0.9839   0.03028   0.02166  -0.0983  0.6760  1.0000  -2.4893   0.0000   0.0000   0.0000   0.3449
   6.000   1.0457   0.02518   0.01676  -0.0871  0.5642  1.0000  -3.1437   0.0000   0.0000   0.0000   0.3277
   6.500   1.0538   0.02533   0.01630  -0.0743  0.3303  1.0000  -3.4144   0.0000   0.0000   0.0000   0.3142
   7.000   1.0410   0.03199   0.02077  -0.0656  0.1265  1.0000  -3.4639   0.0000   0.0000   0.0000   0.3061
   7.500   1.0602   0.03667   0.02530  -0.0603  0.0939  1.0000  -3.6378   0.0000   0.0000   0.0000   0.2994
   8.000   1.1262   0.04182   0.03061  -0.0591  0.0732  1.0000  -4.0233   0.0000   0.0000   0.0000   0.2944
   8.500   1.1878   0.04865   0.03801  -0.0583  0.0627  1.0000  -4.3332   0.0000   0.0000   0.0000   0.2905
   9.000   1.2198   0.05625   0.04660  -0.0549  0.0597  1.0000  -4.4525   0.0000   0.0000   0.0000   0.2859
   9.500   1.2279   0.06401   0.05517  -0.0504  0.0572  1.0000  -4.5119   0.0000   0.0000   0.0000   0.2815
  10.000   1.2125   0.07181   0.06379  -0.0452  0.0567  1.0000  -4.4548   0.0000   0.0000   0.0000   0.2772
  10.500   1.1833   0.07953   0.07206  -0.0406  0.0571  1.0000  -4.3699   0.0000   0.0000   0.0000   0.2738
  11.000   1.1510   0.08841   0.08132  -0.0393  0.0578  1.0000  -4.2702   0.0000   0.0000   0.0000   0.2731
  11.500   1.0894   0.10102   0.09440  -0.0450  0.0601  1.0000  -3.9440   0.0000   0.0000   0.0000   0.2797


