xflr5 v6.61

 Calculated polar for: NACA4412_7_50

 1 1 Reynolds number fixed          Mach number fixed         

 xtrf =   1.000 (top)        1.000 (bottom)
 Mach =   0.200     Re =     0.100 e 6     Ncrit =   9.000

  alpha     CL        CD       CDp       Cm    Top Xtr Bot Xtr   Cpmin    Chinge    XCp    
 ------- -------- --------- --------- -------- ------- ------- -------- --------- ---------
 -20.500  -0.4428   0.21250   0.20758   0.0067  1.0000  0.0272  -0.9637   0.0000   0.0000   0.0000   0.2600
 -20.000  -0.4316   0.20720   0.20225   0.0040  1.0000  0.0285  -0.9634   0.0000   0.0000   0.0000   0.2543
 -19.500  -0.4208   0.20216   0.19718   0.0011  1.0000  0.0299  -0.9820   0.0000   0.0000   0.0000   0.2480
 -19.000  -0.4112   0.19786   0.19287  -0.0020  1.0000  0.0307  -1.0319   0.0000   0.0000   0.0000   0.2405
 -18.500  -0.4000   0.19235   0.18735  -0.0045  1.0000  0.0314  -1.0272   0.0000   0.0000   0.0000   0.2343
 -18.000  -0.3883   0.18712   0.18209  -0.0068  1.0000  0.0329  -0.9999   0.0000   0.0000   0.0000   0.2282
 -17.500  -0.3780   0.18254   0.17750  -0.0094  1.0000  0.0349  -1.0084   0.0000   0.0000   0.0000   0.2208
 -17.000  -0.3707   0.17902   0.17398  -0.0125  1.0000  0.0358  -1.0602   0.0000   0.0000   0.0000   0.2121
 -16.500  -0.3572   0.17294   0.16789  -0.0141  1.0000  0.0377  -0.9899   0.0000   0.0000   0.0000   0.2065
 -16.000  -0.3477   0.16856   0.16349  -0.0164  1.0000  0.0398  -0.9879   0.0000   0.0000   0.0000   0.1987
 -15.500  -0.3437   0.16602   0.16095  -0.0195  1.0000  0.0408  -1.0895   0.0000   0.0000   0.0000   0.1892
 -15.000  -0.3295   0.15951   0.15444  -0.0206  1.0000  0.0425  -1.0452   0.0000   0.0000   0.0000   0.1836
 -14.500  -0.3215   0.15539   0.15031  -0.0224  1.0000  0.0449  -1.0726   0.0000   0.0000   0.0000   0.1761
 -14.000  -0.3217   0.15344   0.14836  -0.0250  1.0000  0.0462  -1.1759   0.0000   0.0000   0.0000   0.1680
 -13.500  -0.3095   0.14736   0.14228  -0.0256  1.0000  0.0481  -1.1322   0.0000   0.0000   0.0000   0.1630
 -13.000  -0.3036   0.14308   0.13800  -0.0272  1.0000  0.0510  -1.1592   0.0000   0.0000   0.0000   0.1560
 -12.500  -0.2983   0.13819   0.13315  -0.0290  1.0000  0.0528  -1.1970   0.0000   0.0000   0.0000   0.1486
 -12.000  -0.2897   0.13283   0.12781  -0.0300  1.0000  0.0567  -1.1827   0.0000   0.0000   0.0000   0.1422
 -11.500  -0.2880   0.12791   0.12294  -0.0319  1.0000  0.0585  -1.2432   0.0000   0.0000   0.0000   0.1351
 -11.000  -0.2773   0.12163   0.11669  -0.0321  1.0000  0.0621  -1.1953   0.0000   0.0000   0.0000   0.1302
 -10.500  -0.2839   0.11751   0.11263  -0.0345  1.0000  0.0644  -1.3017   0.0000   0.0000   0.0000   0.1247
 -10.000  -0.2691   0.11005   0.10522  -0.0334  1.0000  0.0681  -1.2067   0.0000   0.0000   0.0000   0.1220
  -9.750  -0.3664   0.11920   0.11397  -0.0310  1.0000  0.0643  -1.5803   0.0000   0.0000   0.0000   0.1600
  -9.500  -0.2775   0.10551   0.10078  -0.0352  1.0000  0.0710  -1.3012   0.0000   0.0000   0.0000   0.1197
  -9.250  -0.3512   0.11187   0.10669  -0.0304  1.0000  0.0675  -1.4911   0.0000   0.0000   0.0000   0.1581
  -9.000  -0.2660   0.09839   0.09373  -0.0337  1.0000  0.0748  -1.2559   0.0000   0.0000   0.0000   0.1201
  -8.750  -0.3557   0.10772   0.10269  -0.0332  1.0000  0.0709  -1.5869   0.0000   0.0000   0.0000   0.1519
  -8.500  -0.2799   0.09404   0.08952  -0.0347  1.0000  0.0780  -1.3714   0.0000   0.0000   0.0000   0.1231
  -8.250  -0.3432   0.10092   0.09595  -0.0317  1.0000  0.0746  -1.5379   0.0000   0.0000   0.0000   0.1530
  -8.000  -0.2727   0.08748   0.08303  -0.0321  1.0000  0.0834  -1.3219   0.0000   0.0000   0.0000   0.1296
  -7.750  -0.3589   0.09764   0.09289  -0.0326  1.0000  0.0779  -1.6597   0.0000   0.0000   0.0000   0.1553
  -7.500  -0.3535   0.09411   0.08940  -0.0310  1.0000  0.0794  -1.6262   0.0000   0.0000   0.0000   0.1586
  -7.250  -0.3540   0.09179   0.08715  -0.0292  1.0000  0.0822  -1.6078   0.0000   0.0000   0.0000   0.1638
  -7.000  -0.3662   0.09041   0.08588  -0.0278  1.0000  0.0841  -1.6497   0.0000   0.0000   0.0000   0.1709
  -6.750  -0.3793   0.08895   0.08454  -0.0298  1.0000  0.0852  -1.7453   0.0000   0.0000   0.0000   0.1686
  -6.500  -0.3745   0.08572   0.08133  -0.0261  1.0000  0.0878  -1.6746   0.0000   0.0000   0.0000   0.1776
  -6.250  -0.3782   0.08358   0.07925  -0.0259  1.0000  0.0911  -1.6906   0.0000   0.0000   0.0000   0.1788
  -5.750  -0.3811   0.07841   0.07420  -0.0261  1.0000  0.0958  -1.7163   0.0000   0.0000   0.0000   0.1793
  -5.500  -0.3782   0.07569   0.07146  -0.0310  1.0000  0.1004  -1.7870   0.0000   0.0000   0.0000   0.1661
  -5.250  -0.3753   0.07259   0.06841  -0.0295  1.0000  0.1023  -1.7587   0.0000   0.0000   0.0000   0.1694
  -5.000  -0.3689   0.06986   0.06568  -0.0299  1.0000  0.1070  -1.7407   0.0000   0.0000   0.0000   0.1670
  -4.750  -0.3597   0.06646   0.06226  -0.0323  1.0000  0.1109  -1.7493   0.0000   0.0000   0.0000   0.1585
  -4.500  -0.3433   0.06291   0.05860  -0.0371  1.0000  0.1180  -1.7742   0.0000   0.0000   0.0000   0.1401
  -4.250  -0.3356   0.06035   0.05607  -0.0351  1.0000  0.1223  -1.7027   0.0000   0.0000   0.0000   0.1436
  -4.000  -0.3191   0.05704   0.05270  -0.0376  1.0000  0.1296  -1.6792   0.0000   0.0000   0.0000   0.1305
  -3.750  -0.2931   0.05366   0.04907  -0.0432  1.0000  0.1447  -1.6740   0.0000   0.0000   0.0000   0.1009
  -3.500  -0.2778   0.05089   0.04628  -0.0432  0.9999  0.1551  -1.5970   0.0000   0.0000   0.0000   0.0927
  -3.250  -0.2310   0.04693   0.04212  -0.0502  0.9938  0.1748  -1.5275   0.0000   0.0000   0.0000   0.0305
  -3.000  -0.1500   0.03501   0.02869  -0.0640  0.9922  0.0926  -1.9433   0.0000   0.0000   0.0000  -0.1809
  -2.750  -0.1001   0.03014   0.02305  -0.0688  0.9881  0.0843  -1.9843   0.0000   0.0000   0.0000  -0.4439
  -2.500  -0.0530   0.02684   0.01905  -0.0725  0.9829  0.0826  -1.9421   0.0000   0.0000   0.0000  -1.1289
  -2.250  -0.0077   0.02484   0.01649  -0.0758  0.9768  0.0890  -1.8194   0.0000   0.0000   0.0000  -9.6908
  -2.000   0.0374   0.02325   0.01450  -0.0788  0.9704  0.0973  -1.7154   0.0000   0.0000   0.0000   2.3725
  -1.750   0.0829   0.02208   0.01313  -0.0819  0.9639  0.1121  -1.5681   0.0000   0.0000   0.0000   1.2449
  -1.500   0.1250   0.02122   0.01216  -0.0845  0.9557  0.1351  -1.4058   0.0000   0.0000   0.0000   0.9297
  -1.250   0.1656   0.02042   0.01155  -0.0870  0.9470  0.1703  -1.2571   0.0000   0.0000   0.0000   0.7776
  -1.000   0.2055   0.01966   0.01107  -0.0893  0.9381  0.2317  -1.1022   0.0000   0.0000   0.0000   0.6860
  -0.750   0.2449   0.01866   0.01064  -0.0916  0.9294  0.3640  -0.9405   0.0000   0.0000   0.0000   0.6248
  -0.500   0.2945   0.01683   0.01020  -0.0948  0.9247  1.0000  -0.7683   0.0000   0.0000   0.0000   0.5723
  -0.250   0.3356   0.01690   0.00997  -0.0971  0.9141  1.0000  -0.6129   0.0000   0.0000   0.0000   0.5395
   0.000   0.3761   0.01692   0.00977  -0.0993  0.9034  1.0000  -0.5521   0.0000   0.0000   0.0000   0.5138
   0.250   0.4161   0.01690   0.00959  -0.1014  0.8926  1.0000  -0.5775   0.0000   0.0000   0.0000   0.4931
   0.500   0.4552   0.01686   0.00942  -0.1032  0.8818  1.0000  -0.6031   0.0000   0.0000   0.0000   0.4758
   0.750   0.4927   0.01679   0.00925  -0.1046  0.8708  1.0000  -0.6288   0.0000   0.0000   0.0000   0.4611
   1.000   0.5295   0.01669   0.00908  -0.1057  0.8599  1.0000  -0.6549   0.0000   0.0000   0.0000   0.4484
   1.250   0.5660   0.01657   0.00889  -0.1067  0.8490  1.0000  -0.6816   0.0000   0.0000   0.0000   0.4371
   1.500   0.6033   0.01639   0.00867  -0.1078  0.8390  1.0000  -0.7098   0.0000   0.0000   0.0000   0.4269
   1.750   0.6378   0.01625   0.00851  -0.1083  0.8277  1.0000  -0.7374   0.0000   0.0000   0.0000   0.4179
   2.000   0.6688   0.01622   0.00845  -0.1082  0.8149  1.0000  -0.7635   0.0000   0.0000   0.0000   0.4097
   2.250   0.6989   0.01622   0.00844  -0.1080  0.8019  1.0000  -0.7902   0.0000   0.0000   0.0000   0.4022
   2.500   0.7284   0.01625   0.00850  -0.1076  0.7887  1.0000  -0.8177   0.0000   0.0000   0.0000   0.3953
   2.750   0.7573   0.01633   0.00858  -0.1072  0.7755  1.0000  -0.8463   0.0000   0.0000   0.0000   0.3889
   3.000   0.7856   0.01645   0.00871  -0.1067  0.7622  1.0000  -0.8896   0.0000   0.0000   0.0000   0.3830
   3.250   0.8135   0.01660   0.00892  -0.1062  0.7488  1.0000  -0.9997   0.0000   0.0000   0.0000   0.3774
   3.500   0.8411   0.01679   0.00915  -0.1056  0.7356  1.0000  -1.1262   0.0000   0.0000   0.0000   0.3722
   3.750   0.8684   0.01701   0.00942  -0.1050  0.7224  1.0000  -1.2635   0.0000   0.0000   0.0000   0.3673
   4.000   0.8956   0.01725   0.00972  -0.1044  0.7093  1.0000  -1.4151   0.0000   0.0000   0.0000   0.3627
   4.250   0.9227   0.01751   0.01008  -0.1037  0.6961  1.0000  -1.5714   0.0000   0.0000   0.0000   0.3583
   4.500   0.9496   0.01777   0.01043  -0.1030  0.6828  1.0000  -1.7492   0.0000   0.0000   0.0000   0.3541
   4.750   0.9764   0.01804   0.01080  -0.1021  0.6689  1.0000  -1.9445   0.0000   0.0000   0.0000   0.3501
   5.000   1.0022   0.01825   0.01114  -0.1010  0.6526  1.0000  -2.1574   0.0000   0.0000   0.0000   0.3460
   5.250   1.0270   0.01791   0.01078  -0.0987  0.6239  1.0000  -2.3821   0.0000   0.0000   0.0000   0.3410
   5.500   1.0495   0.01752   0.01028  -0.0958  0.5873  1.0000  -2.6060   0.0000   0.0000   0.0000   0.3359
   5.750   1.0702   0.01751   0.01031  -0.0933  0.5546  1.0000  -2.8366   0.0000   0.0000   0.0000   0.3315
   6.000   1.0889   0.01757   0.01043  -0.0906  0.5158  1.0000  -3.0680   0.0000   0.0000   0.0000   0.3272
   6.250   1.1033   0.01775   0.01057  -0.0870  0.4588  1.0000  -3.2732   0.0000   0.0000   0.0000   0.3225
   6.500   1.1004   0.01898   0.01095  -0.0810  0.2783  1.0000  -3.3678   0.0000   0.0000   0.0000   0.3169
   6.750   1.0887   0.02261   0.01316  -0.0754  0.1233  1.0000  -3.3825   0.0000   0.0000   0.0000   0.3123
   7.000   1.0935   0.02473   0.01506  -0.0718  0.0969  1.0000  -3.4718   0.0000   0.0000   0.0000   0.3084
   7.250   1.1011   0.02659   0.01682  -0.0685  0.0841  1.0000  -3.5801   0.0000   0.0000   0.0000   0.3047
   7.500   1.1131   0.02836   0.01857  -0.0659  0.0743  1.0000  -3.7047   0.0000   0.0000   0.0000   0.3014
   7.750   1.1327   0.03043   0.02056  -0.0642  0.0676  1.0000  -3.8406   0.0000   0.0000   0.0000   0.2986
   8.000   1.1578   0.03261   0.02271  -0.0634  0.0606  1.0000  -4.0110   0.0000   0.0000   0.0000   0.2964
   8.250   1.1909   0.03545   0.02561  -0.0635  0.0565  1.0000  -4.2159   0.0000   0.0000   0.0000   0.2946
   8.500   1.2210   0.03829   0.02855  -0.0635  0.0526  1.0000  -4.4242   0.0000   0.0000   0.0000   0.2929
   8.750   1.2410   0.04119   0.03193  -0.0618  0.0500  1.0000  -4.5373   0.0000   0.0000   0.0000   0.2905
   9.000   1.2604   0.04464   0.03583  -0.0601  0.0493  1.0000  -4.6206   0.0000   0.0000   0.0000   0.2880
   9.250   1.2734   0.04835   0.04005  -0.0577  0.0495  1.0000  -4.6620   0.0000   0.0000   0.0000   0.2855
   9.500   1.2816   0.05232   0.04449  -0.0551  0.0502  1.0000  -4.6786   0.0000   0.0000   0.0000   0.2829
   9.750   1.2859   0.05637   0.04895  -0.0525  0.0509  1.0000  -4.6905   0.0000   0.0000   0.0000   0.2804
  10.000   1.2853   0.06034   0.05330  -0.0497  0.0512  1.0000  -4.6926   0.0000   0.0000   0.0000   0.2780
  10.250   1.2808   0.06429   0.05760  -0.0468  0.0514  1.0000  -4.6853   0.0000   0.0000   0.0000   0.2756
  10.500   1.2743   0.06832   0.06191  -0.0441  0.0516  1.0000  -4.6771   0.0000   0.0000   0.0000   0.2734
  10.750   1.2347   0.07159   0.06574  -0.0386  0.0547  1.0000  -4.4568   0.0000   0.0000   0.0000   0.2698
  11.000   1.2139   0.07579   0.07018  -0.0365  0.0558  1.0000  -4.3836   0.0000   0.0000   0.0000   0.2684
  11.250   1.1962   0.08033   0.07490  -0.0356  0.0567  1.0000  -4.3309   0.0000   0.0000   0.0000   0.2678
  11.500   1.1839   0.08523   0.07993  -0.0355  0.0575  1.0000  -4.3015   0.0000   0.0000   0.0000   0.2676
  11.750   1.1341   0.09288   0.08797  -0.0387  0.0621  1.0000  -4.0034   0.0000   0.0000   0.0000   0.2716
  12.000   1.1211   0.09902   0.09420  -0.0407  0.0636  1.0000  -3.9456   0.0000   0.0000   0.0000   0.2734


