xflr5 v6.61

 Calculated polar for: NACA4412_7_00

 1 1 Reynolds number fixed          Mach number fixed         

 xtrf =   1.000 (top)        1.000 (bottom)
 Mach =   0.200     Re =     0.125 e 6     Ncrit =   7.000

  alpha     CL        CD       CDp       Cm    Top Xtr Bot Xtr   Cpmin    Chinge    XCp    
 ------- -------- --------- --------- -------- ------- ------- -------- --------- ---------
 -24.500  -0.8155   0.30268   0.29760   0.0704  1.0000  0.0122  -1.6336   0.0000   0.0000   0.0000   0.3211
 -24.000  -0.7990   0.29675   0.29165   0.0660  1.0000  0.0126  -1.6017   0.0000   0.0000   0.0000   0.3180
 -23.500  -0.7821   0.29082   0.28571   0.0615  1.0000  0.0131  -1.5855   0.0000   0.0000   0.0000   0.3148
 -23.000  -0.7649   0.28483   0.27970   0.0571  1.0000  0.0137  -1.5744   0.0000   0.0000   0.0000   0.3113
 -22.500  -0.7474   0.27880   0.27367   0.0527  1.0000  0.0143  -1.5676   0.0000   0.0000   0.0000   0.3078
 -22.000  -0.7297   0.27279   0.26764   0.0482  1.0000  0.0147  -1.5722   0.0000   0.0000   0.0000   0.3039
 -21.500  -0.7119   0.26709   0.26194   0.0436  1.0000  0.0149  -1.5946   0.0000   0.0000   0.0000   0.2995
 -21.000  -0.6946   0.26071   0.25557   0.0394  1.0000  0.0151  -1.5769   0.0000   0.0000   0.0000   0.2956
 -20.500  -0.6774   0.25405   0.24890   0.0358  1.0000  0.0157  -1.4922   0.0000   0.0000   0.0000   0.2922
 -20.000  -0.6598   0.24784   0.24268   0.0319  1.0000  0.0167  -1.4429   0.0000   0.0000   0.0000   0.2882
 -19.500  -0.6421   0.24160   0.23644   0.0279  1.0000  0.0179  -1.4635   0.0000   0.0000   0.0000   0.2836
 -19.000  -0.6245   0.23573   0.23058   0.0235  1.0000  0.0184  -1.5357   0.0000   0.0000   0.0000   0.2782
 -18.500  -0.6073   0.22911   0.22397   0.0198  1.0000  0.0186  -1.5535   0.0000   0.0000   0.0000   0.2735
 -18.000  -0.5901   0.22235   0.21720   0.0167  1.0000  0.0194  -1.4994   0.0000   0.0000   0.0000   0.2696
 -17.500  -0.5730   0.21599   0.21085   0.0132  1.0000  0.0204  -1.4883   0.0000   0.0000   0.0000   0.2647
 -17.000  -0.5561   0.20962   0.20448   0.0097  1.0000  0.0215  -1.4965   0.0000   0.0000   0.0000   0.2594
 -16.500  -0.5399   0.20362   0.19849   0.0057  1.0000  0.0221  -1.5461   0.0000   0.0000   0.0000   0.2528
 -16.000  -0.5241   0.19701   0.19190   0.0024  1.0000  0.0224  -1.5519   0.0000   0.0000   0.0000   0.2470
 -15.500  -0.5076   0.19009   0.18499  -0.0000  1.0000  0.0234  -1.4712   0.0000   0.0000   0.0000   0.2427
 -15.000  -0.4921   0.18366   0.17856  -0.0030  1.0000  0.0248  -1.4438   0.0000   0.0000   0.0000   0.2370
 -14.500  -0.4781   0.17771   0.17263  -0.0067  1.0000  0.0262  -1.4869   0.0000   0.0000   0.0000   0.2292
 -14.000  -0.4632   0.17065   0.16560  -0.0089  1.0000  0.0272  -1.4354   0.0000   0.0000   0.0000   0.2241
 -13.500  -0.4489   0.16418   0.15915  -0.0113  1.0000  0.0289  -1.4311   0.0000   0.0000   0.0000   0.2184
 -13.000  -0.4363   0.15794   0.15294  -0.0143  1.0000  0.0304  -1.4949   0.0000   0.0000   0.0000   0.2109
 -12.500  -0.4273   0.15223   0.14728  -0.0179  1.0000  0.0310  -1.6088   0.0000   0.0000   0.0000   0.2020
 -12.000  -0.4110   0.14469   0.13974  -0.0186  1.0000  0.0325  -1.5174   0.0000   0.0000   0.0000   0.1987
 -11.500  -0.3994   0.13841   0.13349  -0.0209  1.0000  0.0345  -1.5373   0.0000   0.0000   0.0000   0.1919
 -11.000  -0.3934   0.13303   0.12818  -0.0246  1.0000  0.0356  -1.6614   0.0000   0.0000   0.0000   0.1819
 -10.500  -0.3788   0.12570   0.12088  -0.0251  1.0000  0.0369  -1.5850   0.0000   0.0000   0.0000   0.1784
 -10.000  -0.3685   0.11963   0.11485  -0.0267  1.0000  0.0391  -1.5769   0.0000   0.0000   0.0000   0.1723
  -9.500  -0.3682   0.11479   0.11011  -0.0307  1.0000  0.0407  -1.7268   0.0000   0.0000   0.0000   0.1618
  -9.000  -0.3526   0.10779   0.10316  -0.0297  1.0000  0.0440  -1.5866   0.0000   0.0000   0.0000   0.1612
  -8.500  -0.3565   0.10327   0.09878  -0.0328  1.0000  0.0461  -1.7248   0.0000   0.0000   0.0000   0.1539
  -8.000  -0.3460   0.09682   0.09240  -0.0312  1.0000  0.0480  -1.6201   0.0000   0.0000   0.0000   0.1560
  -7.500  -0.3498   0.09223   0.08795  -0.0304  1.0000  0.0506  -1.6375   0.0000   0.0000   0.0000   0.1595
  -7.000  -0.3726   0.08904   0.08498  -0.0300  1.0000  0.0518  -1.7909   0.0000   0.0000   0.0000   0.1667
  -6.500  -0.3738   0.08370   0.07975  -0.0269  1.0000  0.0532  -1.7604   0.0000   0.0000   0.0000   0.1755
  -6.000  -0.3767   0.07894   0.07508  -0.0264  1.0000  0.0560  -1.7802   0.0000   0.0000   0.0000   0.1777
  -5.500  -0.3707   0.07250   0.06867  -0.0326  1.0000  0.0585  -1.9252   0.0000   0.0000   0.0000   0.1602
  -5.000  -0.3237   0.06358   0.05958  -0.0452  0.9951  0.0646  -1.9905   0.0000   0.0000   0.0000   0.1084
  -3.500  -0.0724   0.02761   0.02115  -0.0844  0.9655  0.0429  -2.4040   0.0000   0.0000   0.0000  -0.9263
  -3.000   0.0084   0.02148   0.01343  -0.0892  0.9564  0.0464  -2.3920   0.0000   0.0000   0.0000  11.0008
  -2.500   0.0851   0.01879   0.01022  -0.0929  0.9461  0.0579  -2.0234   0.0000   0.0000   0.0000   1.3493
  -2.000   0.1594   0.01692   0.00832  -0.0962  0.9343  0.0799  -1.6296   0.0000   0.0000   0.0000   0.8567
  -1.500   0.2304   0.01555   0.00711  -0.0989  0.9202  0.1330  -1.2545   0.0000   0.0000   0.0000   0.6806
  -1.000   0.3011   0.01425   0.00638  -0.1016  0.9060  0.2876  -0.9152   0.0000   0.0000   0.0000   0.5881
  -0.500   0.3764   0.01210   0.00579  -0.1043  0.8927  1.0000  -0.5922   0.0000   0.0000   0.0000   0.5271
   0.000   0.4414   0.01198   0.00531  -0.1052  0.8723  1.0000  -0.5835   0.0000   0.0000   0.0000   0.4879
   0.500   0.5054   0.01184   0.00493  -0.1058  0.8507  1.0000  -0.6276   0.0000   0.0000   0.0000   0.4585
   1.000   0.5662   0.01177   0.00468  -0.1058  0.8260  1.0000  -0.6722   0.0000   0.0000   0.0000   0.4355
   1.500   0.6237   0.01181   0.00459  -0.1051  0.7979  1.0000  -0.7176   0.0000   0.0000   0.0000   0.4169
   2.000   0.6799   0.01195   0.00462  -0.1043  0.7678  1.0000  -0.7652   0.0000   0.0000   0.0000   0.4013
   2.500   0.7352   0.01218   0.00480  -0.1033  0.7371  1.0000  -0.8161   0.0000   0.0000   0.0000   0.3881
   3.000   0.7897   0.01252   0.00509  -0.1023  0.7068  1.0000  -0.9562   0.0000   0.0000   0.0000   0.3766
   3.500   0.8434   0.01295   0.00555  -0.1012  0.6774  1.0000  -1.2351   0.0000   0.0000   0.0000   0.3666
   4.000   0.8965   0.01345   0.00615  -0.0999  0.6487  1.0000  -1.5713   0.0000   0.0000   0.0000   0.3577
   4.500   0.9490   0.01402   0.00684  -0.0986  0.6200  1.0000  -1.9872   0.0000   0.0000   0.0000   0.3496
   5.000   0.9931   0.01434   0.00709  -0.0948  0.5541  1.0000  -2.4135   0.0000   0.0000   0.0000   0.3407
   5.500   1.0330   0.01499   0.00760  -0.0907  0.4677  1.0000  -2.8804   0.0000   0.0000   0.0000   0.3324
   6.000   1.0508   0.01762   0.00892  -0.0839  0.1951  1.0000  -3.2354   0.0000   0.0000   0.0000   0.3239
   6.500   1.0651   0.02196   0.01227  -0.0777  0.0596  1.0000  -3.4900   0.0000   0.0000   0.0000   0.3165
   7.000   1.0895   0.02489   0.01528  -0.0726  0.0454  1.0000  -3.7952   0.0000   0.0000   0.0000   0.3096
   7.500   1.1171   0.02807   0.01857  -0.0680  0.0374  1.0000  -4.1350   0.0000   0.0000   0.0000   0.3033
   8.000   1.1554   0.03176   0.02231  -0.0652  0.0311  1.0000  -4.5904   0.0000   0.0000   0.0000   0.2982
   8.500   1.2064   0.03692   0.02803  -0.0634  0.0282  1.0000  -4.9359   0.0000   0.0000   0.0000   0.2938
   9.000   1.2427   0.04265   0.03436  -0.0605  0.0256  1.0000  -5.2423   0.0000   0.0000   0.0000   0.2894
   9.500   1.2567   0.04916   0.04183  -0.0552  0.0243  1.0000  -5.3199   0.0000   0.0000   0.0000   0.2840
  10.000   1.2510   0.05632   0.04980  -0.0487  0.0244  1.0000  -5.2858   0.0000   0.0000   0.0000   0.2785
  10.500   1.2264   0.06332   0.05744  -0.0421  0.0247  1.0000  -5.1996   0.0000   0.0000   0.0000   0.2734
  11.000   1.1940   0.07127   0.06589  -0.0386  0.0251  1.0000  -5.1071   0.0000   0.0000   0.0000   0.2707
  11.500   1.1584   0.08078   0.07582  -0.0389  0.0255  1.0000  -4.9935   0.0000   0.0000   0.0000   0.2713
  12.000   1.1225   0.09218   0.08753  -0.0431  0.0258  1.0000  -4.8497   0.0000   0.0000   0.0000   0.2755
  12.500   1.0911   0.10509   0.10067  -0.0498  0.0262  1.0000  -4.6973   0.0000   0.0000   0.0000   0.2822
  13.000   1.0274   0.13189   0.12778  -0.0694  0.0287  1.0000  -3.7904   0.0000   0.0000   0.0000   0.3040
  13.500   1.0173   0.14714   0.14300  -0.0771  0.0305  1.0000  -3.5208   0.0000   0.0000   0.0000   0.3119
  14.500   1.0072   0.18460   0.18036  -0.0956  0.0639  1.0000  -2.4250   0.0000   0.0000   0.0000   0.3308
  15.000   1.0126   0.19430   0.19004  -0.1014  0.0591  1.0000  -2.3765   0.0000   0.0000   0.0000   0.3354
  15.500   1.0182   0.20425   0.19996  -0.1075  0.0562  1.0000  -2.2958   0.0000   0.0000   0.0000   0.3403
  16.000   1.0395   0.21182   0.20758  -0.1079  0.0521  1.0000  -2.4903   0.0000   0.0000   0.0000   0.3378
  16.500   1.0395   0.22150   0.21718  -0.1175  0.0486  1.0000  -2.2606   0.0000   0.0000   0.0000   0.3464
  17.000   1.0527   0.22971   0.22538  -0.1219  0.0451  1.0000  -2.2725   0.0000   0.0000   0.0000   0.3484
  17.500   1.0690   0.23739   0.23308  -0.1253  0.0412  1.0000  -2.3457   0.0000   0.0000   0.0000   0.3490
  18.000   1.0795   0.24597   0.24162  -0.1318  0.0396  1.0000  -2.2326   0.0000   0.0000   0.0000   0.3531
  18.500   1.0946   0.25355   0.24923  -0.1363  0.0366  1.0000  -2.2407   0.0000   0.0000   0.0000   0.3547
  19.000   1.1104   0.26161   0.25728  -0.1403  0.0354  1.0000  -2.2531   0.0000   0.0000   0.0000   0.3557
  19.500   1.1236   0.26924   0.26490  -0.1467  0.0329  1.0000  -2.1490   0.0000   0.0000   0.0000   0.3591
  20.000   1.1437   0.27739   0.27312  -0.1481  0.0309  1.0000  -2.3088   0.0000   0.0000   0.0000   0.3571


