xflr5 v6.61

 Calculated polar for: NACA4412_7_20

 1 1 Reynolds number fixed          Mach number fixed         

 xtrf =   1.000 (top)        1.000 (bottom)
 Mach =   0.200     Re =     0.025 e 6     Ncrit =   9.000

  alpha     CL        CD       CDp       Cm    Top Xtr Bot Xtr   Cpmin    Chinge    XCp    
 ------- -------- --------- --------- -------- ------- ------- -------- --------- ---------
 -21.000  -0.7052   0.26798   0.25685   0.0392  1.0000  0.1056  -1.4406   0.0000   0.0000   0.0000   0.2945
 -20.500  -0.6913   0.26571   0.25460   0.0345  1.0000  0.1089  -1.4662   0.0000   0.0000   0.0000   0.2894
 -20.000  -0.6712   0.25636   0.24523   0.0314  1.0000  0.1146  -1.4347   0.0000   0.0000   0.0000   0.2866
 -19.500  -0.6553   0.25130   0.24020   0.0274  1.0000  0.1188  -1.4382   0.0000   0.0000   0.0000   0.2821
 -19.000  -0.6389   0.24590   0.23480   0.0238  1.0000  0.1252  -1.4305   0.0000   0.0000   0.0000   0.2779
 -18.500  -0.6205   0.23834   0.22724   0.0206  1.0000  0.1309  -1.4075   0.0000   0.0000   0.0000   0.2743
 -18.000  -0.6062   0.23395   0.22290   0.0168  1.0000  0.1359  -1.4103   0.0000   0.0000   0.0000   0.2692
 -17.500  -0.5894   0.22773   0.21668   0.0137  1.0000  0.1432  -1.3901   0.0000   0.0000   0.0000   0.2649
 -17.000  -0.5712   0.22023   0.20921   0.0108  1.0000  0.1497  -1.3605   0.0000   0.0000   0.0000   0.2610
 -16.500  -0.5563   0.21456   0.20357   0.0077  1.0000  0.1560  -1.3455   0.0000   0.0000   0.0000   0.2561
 -16.000  -0.5458   0.21130   0.20035   0.0043  1.0000  0.1633  -1.3445   0.0000   0.0000   0.0000   0.2507
 -15.500  -0.5288   0.20404   0.19312   0.0019  1.0000  0.1728  -1.3368   0.0000   0.0000   0.0000   0.2465
 -15.000  -0.5137   0.19754   0.18666  -0.0005  1.0000  0.1827  -1.3384   0.0000   0.0000   0.0000   0.2422
 -14.500  -0.4998   0.19145   0.18061  -0.0028  1.0000  0.1932  -1.3424   0.0000   0.0000   0.0000   0.2378
 -14.000  -0.4872   0.18557   0.17480  -0.0050  1.0000  0.2041  -1.3474   0.0000   0.0000   0.0000   0.2335
 -13.500  -0.4756   0.17984   0.16914  -0.0069  1.0000  0.2153  -1.3526   0.0000   0.0000   0.0000   0.2292
 -13.000  -0.4603   0.17242   0.16176  -0.0085  1.0000  0.2276  -1.3434   0.0000   0.0000   0.0000   0.2254
 -12.500  -0.4431   0.16462   0.15401  -0.0098  1.0000  0.2424  -1.3237   0.0000   0.0000   0.0000   0.2219
 -12.000  -0.4334   0.15907   0.14853  -0.0110  1.0000  0.2590  -1.3213   0.0000   0.0000   0.0000   0.2187
 -11.500  -0.4198   0.15208   0.14163  -0.0119  1.0000  0.2773  -1.3039   0.0000   0.0000   0.0000   0.2160
 -11.000  -0.4173   0.14800   0.13767  -0.0126  1.0000  0.2972  -1.3101   0.0000   0.0000   0.0000   0.2145
 -10.500  -0.4046   0.14110   0.13083  -0.0126  1.0000  0.3219  -1.2839   0.0000   0.0000   0.0000   0.2135
 -10.000  -0.3953   0.13497   0.12481  -0.0123  1.0000  0.3480  -1.2676   0.0000   0.0000   0.0000   0.2135
  -9.500  -0.3739   0.12630   0.11621  -0.0117  1.0000  0.3813  -1.2509   0.0000   0.0000   0.0000   0.2135
  -9.000  -0.3613   0.11963   0.10966  -0.0102  1.0000  0.4226  -1.2439   0.0000   0.0000   0.0000   0.2165
  -8.500  -0.3458   0.11261   0.10272  -0.0077  1.0000  0.4794  -1.2256   0.0000   0.0000   0.0000   0.2225
  -8.000  -0.3298   0.10577   0.09598  -0.0039  1.0000  0.5555  -1.2000   0.0000   0.0000   0.0000   0.2328
  -7.500  -0.2857   0.09522   0.08542  -0.0006  1.0000  0.6859  -1.1300   0.0000   0.0000   0.0000   0.2418
  -7.000  -0.0777   0.06686   0.05630  -0.0325  1.0000  1.0000  -0.9339   0.0000   0.0000   0.0000  -0.1922
  -6.500  -0.0599   0.06215   0.05165  -0.0339  1.0000  1.0000  -0.9358   0.0000   0.0000   0.0000  -0.3447
  -6.000  -0.0426   0.05768   0.04729  -0.0351  1.0000  1.0000  -0.9333   0.0000   0.0000   0.0000  -0.6105
  -5.500  -0.0498   0.05565   0.04546  -0.0302  1.0000  0.9866  -0.9457   0.0000   0.0000   0.0000  -0.3846
  -5.000  -0.1485   0.06075   0.05124  -0.0062  1.0000  0.8825  -1.0338   0.0000   0.0000   0.0000   0.1998
  -4.500  -0.2309   0.06337   0.05455   0.0079  1.0000  0.7768  -1.1232   0.0000   0.0000   0.0000   0.2798
  -3.500  -0.3634   0.06352   0.05576   0.0144  1.0000  0.5654  -1.3328   0.0000   0.0000   0.0000   0.2879
  -3.000  -0.2469   0.05317   0.04424  -0.0372  1.0000  0.3197  -1.5093   0.0000   0.0000   0.0000   0.0974
  -2.500  -0.1626   0.04534   0.03531  -0.0515  1.0000  0.2844  -1.5130   0.0000   0.0000   0.0000  -0.0698
  -2.000  -0.0938   0.03962   0.02866  -0.0575  1.0000  0.2898  -1.4374   0.0000   0.0000   0.0000  -0.3678
  -1.500  -0.0237   0.03536   0.02326  -0.0617  1.0000  0.3247  -1.3532   0.0000   0.0000   0.0000  -2.3692
  -1.000   0.0413   0.03187   0.01913  -0.0633  1.0000  0.4081  -1.2143   0.0000   0.0000   0.0000   1.7897
  -0.500   0.0898   0.02694   0.01616  -0.0592  1.0000  0.7211  -1.1194   0.0000   0.0000   0.0000   0.9119
   0.000   0.1470   0.02744   0.01432  -0.0616  1.0000  1.0000  -0.9652   0.0000   0.0000   0.0000   0.6696
   0.500   0.1876   0.02876   0.01470  -0.0612  1.0000  1.0000  -0.7610   0.0000   0.0000   0.0000   0.5755
   1.000   0.2257   0.03033   0.01566  -0.0609  1.0000  1.0000  -0.5739   0.0000   0.0000   0.0000   0.5183
   1.500   0.2621   0.03214   0.01701  -0.0607  1.0000  1.0000  -0.4723   0.0000   0.0000   0.0000   0.4798
   2.000   0.2971   0.03419   0.01876  -0.0607  1.0000  1.0000  -0.4909   0.0000   0.0000   0.0000   0.4521
   2.500   0.3308   0.03648   0.02083  -0.0609  1.0000  1.0000  -0.5096   0.0000   0.0000   0.0000   0.4313
   3.000   0.3636   0.03899   0.02321  -0.0612  1.0000  1.0000  -0.5291   0.0000   0.0000   0.0000   0.4152
   3.500   0.3954   0.04172   0.02590  -0.0616  1.0000  1.0000  -0.5498   0.0000   0.0000   0.0000   0.4024
   4.000   0.4262   0.04468   0.02890  -0.0622  1.0000  1.0000  -0.5722   0.0000   0.0000   0.0000   0.3920
   4.500   0.4561   0.04789   0.03219  -0.0629  1.0000  1.0000  -0.5973   0.0000   0.0000   0.0000   0.3836
   5.000   0.4848   0.05137   0.03581  -0.0638  1.0000  1.0000  -0.6273   0.0000   0.0000   0.0000   0.3767
   5.500   0.5124   0.05514   0.03982  -0.0648  1.0000  1.0000  -0.6804   0.0000   0.0000   0.0000   0.3712
   6.000   0.5386   0.05923   0.04417  -0.0660  1.0000  1.0000  -0.7812   0.0000   0.0000   0.0000   0.3667
   6.500   0.5634   0.06368   0.04897  -0.0674  1.0000  1.0000  -0.9008   0.0000   0.0000   0.0000   0.3633
   7.000   0.5866   0.06854   0.05418  -0.0690  1.0000  1.0000  -1.0329   0.0000   0.0000   0.0000   0.3608
   7.500   0.6082   0.07385   0.05989  -0.0709  1.0000  1.0000  -1.1708   0.0000   0.0000   0.0000   0.3592
   8.000   0.6278   0.07969   0.06616  -0.0731  1.0000  1.0000  -1.3016   0.0000   0.0000   0.0000   0.3586
   8.500   0.6455   0.08616   0.07314  -0.0757  1.0000  1.0000  -1.4322   0.0000   0.0000   0.0000   0.3589
   9.500   1.1679   0.07737   0.06791  -0.0497  0.1923  1.0000  -3.5082   0.0000   0.0000   0.0000   0.2833
  10.000   1.1331   0.08850   0.07940  -0.0489  0.1939  1.0000  -3.3736   0.0000   0.0000   0.0000   0.2835
  10.500   1.0303   0.10867   0.09958  -0.0617  0.2186  1.0000  -2.8620   0.0000   0.0000   0.0000   0.3001
  11.000   1.0031   0.12501   0.11574  -0.0702  0.2270  1.0000  -2.6497   0.0000   0.0000   0.0000   0.3099
  11.500   0.9682   0.14122   0.13169  -0.0805  0.2452  1.0000  -2.3923   0.0000   0.0000   0.0000   0.3228
  12.000   0.9531   0.15497   0.14533  -0.0884  0.2666  1.0000  -2.2173   0.0000   0.0000   0.0000   0.3321
  12.500   0.8987   0.17382   0.16398  -0.1107  0.4667  1.0000  -1.8216   0.0000   0.0000   0.0000   0.3622
  13.000   0.9124   0.18308   0.17329  -0.1134  0.4591  1.0000  -1.7959   0.0000   0.0000   0.0000   0.3627
  13.500   0.9204   0.19061   0.18084  -0.1160  0.4498  1.0000  -1.7606   0.0000   0.0000   0.0000   0.3638
  14.000   0.9350   0.19886   0.18911  -0.1184  0.4349  1.0000  -1.7592   0.0000   0.0000   0.0000   0.3638
  14.500   0.9527   0.20753   0.19783  -0.1207  0.4183  1.0000  -1.7719   0.0000   0.0000   0.0000   0.3633
  15.000   0.9726   0.21694   0.20732  -0.1232  0.4026  1.0000  -1.7856   0.0000   0.0000   0.0000   0.3627
  15.500   0.9857   0.22387   0.21424  -0.1258  0.3860  1.0000  -1.7817   0.0000   0.0000   0.0000   0.3629
  16.000   0.9992   0.23025   0.22063  -0.1285  0.3681  1.0000  -1.7760   0.0000   0.0000   0.0000   0.3632
  16.500   1.0178   0.23844   0.22886  -0.1312  0.3515  1.0000  -1.7784   0.0000   0.0000   0.0000   0.3628
  17.000   1.0389   0.24803   0.23850  -0.1338  0.3345  1.0000  -1.7842   0.0000   0.0000   0.0000   0.3620
  17.500   1.0504   0.25270   0.24317  -0.1372  0.3173  1.0000  -1.7708   0.0000   0.0000   0.0000   0.3629
  18.000   1.0687   0.26041   0.25091  -0.1401  0.3008  1.0000  -1.8047   0.0000   0.0000   0.0000   0.3627
  18.500   1.0899   0.27009   0.26064  -0.1429  0.2858  1.0000  -1.8448   0.0000   0.0000   0.0000   0.3619
  19.000   1.1053   0.27664   0.26720  -0.1465  0.2720  1.0000  -1.8598   0.0000   0.0000   0.0000   0.3625
  19.500   1.1186   0.28146   0.27202  -0.1504  0.2573  1.0000  -1.8644   0.0000   0.0000   0.0000   0.3636
  20.000   1.1352   0.28806   0.27865  -0.1541  0.2427  1.0000  -1.8778   0.0000   0.0000   0.0000   0.3639


