xflr5 v6.61

 Calculated polar for: NACA4412_8_00

 1 1 Reynolds number fixed          Mach number fixed         

 xtrf =   1.000 (top)        1.000 (bottom)
 Mach =   0.200     Re =     0.100 e 6     Ncrit =   9.000

  alpha     CL        CD       CDp       Cm    Top Xtr Bot Xtr   Cpmin    Chinge    XCp    
 ------- -------- --------- --------- -------- ------- ------- -------- --------- ---------
 -18.000  -0.5663   0.22054   0.21475   0.0104  1.0000  0.0319  -1.4657   0.0000   0.0000   0.0000   0.2575
 -17.500  -0.5492   0.21426   0.20847   0.0071  1.0000  0.0338  -1.4288   0.0000   0.0000   0.0000   0.2525
 -17.000  -0.5340   0.20900   0.20323   0.0028  1.0000  0.0355  -1.4651   0.0000   0.0000   0.0000   0.2451
 -16.500  -0.5169   0.20167   0.19592   0.0002  1.0000  0.0366  -1.4090   0.0000   0.0000   0.0000   0.2405
 -16.000  -0.5004   0.19522   0.18948  -0.0026  1.0000  0.0385  -1.3856   0.0000   0.0000   0.0000   0.2351
 -15.500  -0.4861   0.18949   0.18377  -0.0063  1.0000  0.0404  -1.4414   0.0000   0.0000   0.0000   0.2278
 -15.000  -0.4715   0.18283   0.17714  -0.0092  1.0000  0.0414  -1.4646   0.0000   0.0000   0.0000   0.2214
 -14.500  -0.4553   0.17608   0.17039  -0.0113  1.0000  0.0436  -1.4340   0.0000   0.0000   0.0000   0.2163
 -14.000  -0.4432   0.17037   0.16472  -0.0147  1.0000  0.0458  -1.4850   0.0000   0.0000   0.0000   0.2083
 -13.500  -0.4297   0.16356   0.15794  -0.0170  1.0000  0.0471  -1.4905   0.0000   0.0000   0.0000   0.2020
 -13.000  -0.4155   0.15708   0.15149  -0.0190  1.0000  0.0503  -1.4637   0.0000   0.0000   0.0000   0.1962
 -12.500  -0.4085   0.15171   0.14617  -0.0225  1.0000  0.0523  -1.5410   0.0000   0.0000   0.0000   0.1871
 -12.000  -0.3921   0.14446   0.13893  -0.0233  1.0000  0.0559  -1.4661   0.0000   0.0000   0.0000   0.1828
 -11.500  -0.3909   0.14017   0.13473  -0.0274  1.0000  0.0580  -1.5781   0.0000   0.0000   0.0000   0.1726
 -11.000  -0.3715   0.13194   0.12651  -0.0271  1.0000  0.0610  -1.4664   0.0000   0.0000   0.0000   0.1697
 -10.500  -0.3694   0.12711   0.12177  -0.0304  1.0000  0.0642  -1.5394   0.0000   0.0000   0.0000   0.1609
 -10.000  -0.3546   0.11983   0.11453  -0.0304  1.0000  0.0671  -1.4804   0.0000   0.0000   0.0000   0.1576
  -9.750  -0.3513   0.11704   0.11177  -0.0311  1.0000  0.0693  -1.4957   0.0000   0.0000   0.0000   0.1549
  -9.500  -0.3548   0.11511   0.10991  -0.0331  1.0000  0.0708  -1.5707   0.0000   0.0000   0.0000   0.1506
  -9.250  -0.3510   0.11172   0.10658  -0.0333  1.0000  0.0718  -1.5778   0.0000   0.0000   0.0000   0.1491
  -9.000  -0.3425   0.10835   0.10323  -0.0325  1.0000  0.0743  -1.5315   0.0000   0.0000   0.0000   0.1492
  -8.750  -0.3435   0.10605   0.10099  -0.0333  1.0000  0.0771  -1.5655   0.0000   0.0000   0.0000   0.1475
  -8.500  -0.3546   0.10477   0.09982  -0.0351  1.0000  0.0780  -1.6658   0.0000   0.0000   0.0000   0.1458
  -8.250  -0.3396   0.10042   0.09548  -0.0328  1.0000  0.0813  -1.5662   0.0000   0.0000   0.0000   0.1480
  -8.000  -0.3435   0.09836   0.09350  -0.0329  1.0000  0.0841  -1.5973   0.0000   0.0000   0.0000   0.1491
  -7.750  -0.3592   0.09736   0.09263  -0.0332  1.0000  0.0852  -1.6849   0.0000   0.0000   0.0000   0.1533
  -7.500  -0.3511   0.09367   0.08898  -0.0312  1.0000  0.0872  -1.6273   0.0000   0.0000   0.0000   0.1568
  -7.250  -0.3551   0.09164   0.08702  -0.0293  1.0000  0.0895  -1.6230   0.0000   0.0000   0.0000   0.1633
  -7.000  -0.3686   0.09029   0.08578  -0.0275  1.0000  0.0913  -1.6598   0.0000   0.0000   0.0000   0.1718
  -6.750  -0.3848   0.08892   0.08454  -0.0291  1.0000  0.0927  -1.7566   0.0000   0.0000   0.0000   0.1712
  -6.500  -0.3848   0.08591   0.08158  -0.0269  1.0000  0.0941  -1.7307   0.0000   0.0000   0.0000   0.1770
  -6.250  -0.3846   0.08351   0.07921  -0.0248  1.0000  0.0966  -1.6964   0.0000   0.0000   0.0000   0.1826
  -6.000  -0.3901   0.08124   0.07700  -0.0268  1.0000  0.0999  -1.7489   0.0000   0.0000   0.0000   0.1786
  -5.750  -0.3915   0.07824   0.07404  -0.0283  1.0000  0.1017  -1.7830   0.0000   0.0000   0.0000   0.1752
  -5.500  -0.3891   0.07576   0.07160  -0.0258  1.0000  0.1046  -1.7298   0.0000   0.0000   0.0000   0.1813
  -5.250  -0.3835   0.07226   0.06805  -0.0323  1.0000  0.1094  -1.8149   0.0000   0.0000   0.0000   0.1636
  -5.000  -0.3803   0.06977   0.06562  -0.0287  1.0000  0.1120  -1.7360   0.0000   0.0000   0.0000   0.1725
  -4.750  -0.3686   0.06614   0.06191  -0.0334  1.0000  0.1183  -1.7682   0.0000   0.0000   0.0000   0.1572
  -4.500  -0.3546   0.06293   0.05860  -0.0367  1.0000  0.1265  -1.7619   0.0000   0.0000   0.0000   0.1445
  -4.000  -0.3333   0.05756   0.05323  -0.0358  1.0000  0.1407  -1.6524   0.0000   0.0000   0.0000   0.1408
  -3.750  -0.2976   0.05333   0.04878  -0.0430  0.9971  0.1548  -1.6459   0.0000   0.0000   0.0000   0.1034
  -3.000  -0.1268   0.03116   0.02408  -0.0690  0.9841  0.0846  -2.0459   0.0000   0.0000   0.0000  -0.3000
  -2.750  -0.0797   0.02781   0.02000  -0.0728  0.9792  0.0842  -1.9885   0.0000   0.0000   0.0000  -0.6737
  -2.500  -0.0347   0.02581   0.01754  -0.0761  0.9730  0.0903  -1.8852   0.0000   0.0000   0.0000  -1.9632
  -2.250   0.0084   0.02423   0.01554  -0.0789  0.9658  0.0985  -1.7711   0.0000   0.0000   0.0000   9.7504
  -2.000   0.0506   0.02298   0.01402  -0.0814  0.9582  0.1102  -1.6331   0.0000   0.0000   0.0000   1.8701
  -1.750   0.0920   0.02206   0.01307  -0.0839  0.9502  0.1284  -1.4902   0.0000   0.0000   0.0000   1.1676
  -1.500   0.1336   0.02128   0.01231  -0.0864  0.9420  0.1561  -1.3432   0.0000   0.0000   0.0000   0.9006
  -1.250   0.1778   0.02050   0.01172  -0.0894  0.9349  0.2022  -1.1783   0.0000   0.0000   0.0000   0.7552
  -1.000   0.2165   0.01973   0.01129  -0.0915  0.9257  0.2750  -1.0282   0.0000   0.0000   0.0000   0.6739
  -0.750   0.2535   0.01844   0.01092  -0.0933  0.9168  0.4675  -0.8906   0.0000   0.0000   0.0000   0.6189
  -0.500   0.2989   0.01717   0.01054  -0.0955  0.9091  1.0000  -0.7281   0.0000   0.0000   0.0000   0.5699
  -0.250   0.3432   0.01717   0.01024  -0.0983  0.9002  1.0000  -0.5836   0.0000   0.0000   0.0000   0.5366
   0.000   0.3877   0.01708   0.00994  -0.1012  0.8913  1.0000  -0.5753   0.0000   0.0000   0.0000   0.5106
   0.250   0.4256   0.01705   0.00975  -0.1027  0.8804  1.0000  -0.6002   0.0000   0.0000   0.0000   0.4907
   0.500   0.4624   0.01698   0.00956  -0.1040  0.8694  1.0000  -0.6251   0.0000   0.0000   0.0000   0.4739
   0.750   0.4984   0.01690   0.00939  -0.1050  0.8583  1.0000  -0.6502   0.0000   0.0000   0.0000   0.4595
   1.000   0.5341   0.01679   0.00920  -0.1059  0.8474  1.0000  -0.6761   0.0000   0.0000   0.0000   0.4469
   1.250   0.5702   0.01665   0.00899  -0.1068  0.8370  1.0000  -0.7032   0.0000   0.0000   0.0000   0.4356
   1.500   0.6081   0.01643   0.00872  -0.1078  0.8276  1.0000  -0.7323   0.0000   0.0000   0.0000   0.4255
   1.750   0.6388   0.01640   0.00865  -0.1077  0.8150  1.0000  -0.7576   0.0000   0.0000   0.0000   0.4166
   2.000   0.6689   0.01640   0.00862  -0.1075  0.8022  1.0000  -0.7835   0.0000   0.0000   0.0000   0.4085
   2.250   0.6984   0.01643   0.00863  -0.1072  0.7894  1.0000  -0.8100   0.0000   0.0000   0.0000   0.4011
   2.500   0.7274   0.01650   0.00871  -0.1068  0.7766  1.0000  -0.8374   0.0000   0.0000   0.0000   0.3943
   2.750   0.7559   0.01660   0.00880  -0.1064  0.7637  1.0000  -0.8658   0.0000   0.0000   0.0000   0.3880
   3.000   0.7842   0.01674   0.00895  -0.1059  0.7510  1.0000  -0.8962   0.0000   0.0000   0.0000   0.3821
   3.250   0.8123   0.01690   0.00914  -0.1055  0.7384  1.0000  -0.9617   0.0000   0.0000   0.0000   0.3766
   3.500   0.8405   0.01707   0.00934  -0.1050  0.7261  1.0000  -1.0718   0.0000   0.0000   0.0000   0.3714
   3.750   0.8691   0.01725   0.00953  -0.1045  0.7142  1.0000  -1.1981   0.0000   0.0000   0.0000   0.3666
   4.000   0.8980   0.01742   0.00973  -0.1041  0.7024  1.0000  -1.3348   0.0000   0.0000   0.0000   0.3620
   4.250   0.9238   0.01773   0.01013  -0.1033  0.6891  1.0000  -1.4773   0.0000   0.0000   0.0000   0.3576
   4.500   0.9495   0.01805   0.01053  -0.1025  0.6758  1.0000  -1.6277   0.0000   0.0000   0.0000   0.3535
   4.750   0.9754   0.01836   0.01093  -0.1016  0.6623  1.0000  -1.7828   0.0000   0.0000   0.0000   0.3495
   5.000   1.0014   0.01864   0.01134  -0.1007  0.6483  1.0000  -1.9543   0.0000   0.0000   0.0000   0.3456
   5.250   1.0286   0.01871   0.01145  -0.0996  0.6314  1.0000  -2.1627   0.0000   0.0000   0.0000   0.3416
   5.500   1.0519   0.01848   0.01122  -0.0973  0.6040  1.0000  -2.3732   0.0000   0.0000   0.0000   0.3369
   5.750   1.0747   0.01823   0.01092  -0.0948  0.5730  1.0000  -2.5884   0.0000   0.0000   0.0000   0.3324
   6.000   1.0959   0.01823   0.01098  -0.0925  0.5440  1.0000  -2.7971   0.0000   0.0000   0.0000   0.3283
   6.250   1.1151   0.01830   0.01109  -0.0900  0.5114  1.0000  -2.9993   0.0000   0.0000   0.0000   0.3242
   6.500   1.1314   0.01841   0.01123  -0.0869  0.4698  1.0000  -3.2088   0.0000   0.0000   0.0000   0.3200
   6.750   1.1408   0.01873   0.01148  -0.0827  0.3963  1.0000  -3.3791   0.0000   0.0000   0.0000   0.3154
   7.000   1.1280   0.02108   0.01250  -0.0761  0.1966  1.0000  -3.4224   0.0000   0.0000   0.0000   0.3099
   7.250   1.1213   0.02406   0.01470  -0.0711  0.1218  1.0000  -3.4636   0.0000   0.0000   0.0000   0.3057
   7.500   1.1239   0.02611   0.01652  -0.0673  0.1006  1.0000  -3.5569   0.0000   0.0000   0.0000   0.3018
   7.750   1.1309   0.02788   0.01826  -0.0640  0.0881  1.0000  -3.6641   0.0000   0.0000   0.0000   0.2982
   8.000   1.1405   0.02969   0.01995  -0.0612  0.0790  1.0000  -3.7905   0.0000   0.0000   0.0000   0.2950
   8.250   1.1600   0.03180   0.02189  -0.0598  0.0711  1.0000  -3.9488   0.0000   0.0000   0.0000   0.2926
   8.500   1.1907   0.03418   0.02425  -0.0597  0.0646  1.0000  -4.1275   0.0000   0.0000   0.0000   0.2909
   8.750   1.2182   0.03648   0.02666  -0.0593  0.0588  1.0000  -4.3042   0.0000   0.0000   0.0000   0.2891
   9.000   1.2488   0.03955   0.03006  -0.0590  0.0559  1.0000  -4.4711   0.0000   0.0000   0.0000   0.2873
   9.250   1.2776   0.04268   0.03321  -0.0591  0.0522  1.0000  -4.6907   0.0000   0.0000   0.0000   0.2860
   9.500   1.2881   0.04554   0.03665  -0.0564  0.0503  1.0000  -4.7601   0.0000   0.0000   0.0000   0.2832
   9.750   1.2995   0.04900   0.04061  -0.0540  0.0498  1.0000  -4.8202   0.0000   0.0000   0.0000   0.2807
  10.000   1.3053   0.05268   0.04476  -0.0513  0.0498  1.0000  -4.8493   0.0000   0.0000   0.0000   0.2782
  10.250   1.3062   0.05651   0.04902  -0.0483  0.0502  1.0000  -4.8569   0.0000   0.0000   0.0000   0.2756
  10.500   1.3035   0.06042   0.05331  -0.0454  0.0507  1.0000  -4.8558   0.0000   0.0000   0.0000   0.2731
  10.750   1.2997   0.06443   0.05760  -0.0426  0.0513  1.0000  -4.8597   0.0000   0.0000   0.0000   0.2708
  11.000   1.2961   0.06859   0.06198  -0.0402  0.0518  1.0000  -4.8721   0.0000   0.0000   0.0000   0.2688
  11.250   1.2598   0.07142   0.06530  -0.0353  0.0532  1.0000  -4.7131   0.0000   0.0000   0.0000   0.2655
  11.500   1.2288   0.07582   0.07006  -0.0332  0.0545  1.0000  -4.5781   0.0000   0.0000   0.0000   0.2642
  11.750   1.2048   0.08074   0.07523  -0.0327  0.0554  1.0000  -4.4862   0.0000   0.0000   0.0000   0.2640
  12.000   1.1828   0.08607   0.08075  -0.0334  0.0563  1.0000  -4.4053   0.0000   0.0000   0.0000   0.2647
  12.250   1.1652   0.09171   0.08654  -0.0347  0.0571  1.0000  -4.3421   0.0000   0.0000   0.0000   0.2660
  12.500   1.1695   0.09701   0.09185  -0.0348  0.0581  1.0000  -4.3798   0.0000   0.0000   0.0000   0.2657
  13.250   0.8701   0.11841   0.11411  -0.0446  0.0621  1.0000  -3.0538   0.0000   0.0000   0.0000   0.2877
  13.500   0.8558   0.12495   0.12066  -0.0478  0.0639  1.0000  -2.9226   0.0000   0.0000   0.0000   0.2923


