xflr5 v6.61

 Calculated polar for: NACA4412_7_00

 1 1 Reynolds number fixed          Mach number fixed         

 xtrf =   1.000 (top)        1.000 (bottom)
 Mach =   0.200     Re =     0.080 e 6     Ncrit =   7.000

  alpha     CL        CD       CDp       Cm    Top Xtr Bot Xtr   Cpmin    Chinge    XCp    
 ------- -------- --------- --------- -------- ------- ------- -------- --------- ---------
 -19.000  -0.6271   0.23626   0.22987   0.0243  1.0000  0.0275  -1.4796   0.0000   0.0000   0.0000   0.2793
 -18.500  -0.6096   0.22997   0.22357   0.0206  1.0000  0.0289  -1.4724   0.0000   0.0000   0.0000   0.2748
 -18.000  -0.5925   0.22393   0.21753   0.0167  1.0000  0.0302  -1.4904   0.0000   0.0000   0.0000   0.2696
 -17.500  -0.5767   0.21884   0.21246   0.0123  1.0000  0.0308  -1.5483   0.0000   0.0000   0.0000   0.2631
 -17.000  -0.5587   0.21104   0.20467   0.0099  1.0000  0.0321  -1.4773   0.0000   0.0000   0.0000   0.2596
 -16.500  -0.5420   0.20477   0.19840   0.0065  1.0000  0.0344  -1.4595   0.0000   0.0000   0.0000   0.2544
 -16.000  -0.5278   0.19978   0.19344   0.0022  1.0000  0.0356  -1.5134   0.0000   0.0000   0.0000   0.2469
 -15.500  -0.5102   0.19196   0.18564   0.0001  1.0000  0.0371  -1.4380   0.0000   0.0000   0.0000   0.2431
 -15.000  -0.4946   0.18562   0.17930  -0.0028  1.0000  0.0392  -1.4132   0.0000   0.0000   0.0000   0.2374
 -14.500  -0.4819   0.18027   0.17398  -0.0066  1.0000  0.0406  -1.4485   0.0000   0.0000   0.0000   0.2296
 -14.000  -0.4658   0.17281   0.16656  -0.0087  1.0000  0.0420  -1.4210   0.0000   0.0000   0.0000   0.2249
 -13.500  -0.4516   0.16640   0.16017  -0.0111  1.0000  0.0445  -1.4275   0.0000   0.0000   0.0000   0.2190
 -13.000  -0.4420   0.16126   0.15506  -0.0148  1.0000  0.0461  -1.5126   0.0000   0.0000   0.0000   0.2105
 -12.500  -0.4260   0.15358   0.14741  -0.0161  1.0000  0.0480  -1.4727   0.0000   0.0000   0.0000   0.2062
 -12.000  -0.4146   0.14758   0.14145  -0.0187  1.0000  0.0511  -1.4963   0.0000   0.0000   0.0000   0.1992
 -11.500  -0.4032   0.14109   0.13501  -0.0208  1.0000  0.0533  -1.5082   0.0000   0.0000   0.0000   0.1929
 -11.000  -0.3932   0.13526   0.12923  -0.0231  1.0000  0.0573  -1.5225   0.0000   0.0000   0.0000   0.1860
 -10.500  -0.3827   0.12875   0.12278  -0.0248  1.0000  0.0594  -1.5265   0.0000   0.0000   0.0000   0.1800
 -10.000  -0.3730   0.12282   0.11691  -0.0266  1.0000  0.0632  -1.5258   0.0000   0.0000   0.0000   0.1739
  -9.500  -0.3668   0.11701   0.11120  -0.0287  1.0000  0.0653  -1.5599   0.0000   0.0000   0.0000   0.1672
  -9.000  -0.3571   0.11100   0.10527  -0.0294  1.0000  0.0695  -1.5298   0.0000   0.0000   0.0000   0.1631
  -8.500  -0.3558   0.10576   0.10016  -0.0311  1.0000  0.0719  -1.5746   0.0000   0.0000   0.0000   0.1585
  -8.000  -0.3498   0.10020   0.09471  -0.0307  1.0000  0.0765  -1.5377   0.0000   0.0000   0.0000   0.1583
  -7.000  -0.3628   0.09133   0.08620  -0.0282  1.0000  0.0839  -1.6183   0.0000   0.0000   0.0000   0.1695
  -6.500  -0.3671   0.08642   0.08145  -0.0274  1.0000  0.0880  -1.6465   0.0000   0.0000   0.0000   0.1728
  -5.000  -0.3484   0.06990   0.06510  -0.0372  1.0000  0.1091  -1.7930   0.0000   0.0000   0.0000   0.1415
  -4.500  -0.3280   0.06348   0.05864  -0.0385  1.0000  0.1181  -1.7545   0.0000   0.0000   0.0000   0.1311
  -4.000  -0.3008   0.05724   0.05231  -0.0402  1.0000  0.1288  -1.6909   0.0000   0.0000   0.0000   0.1149
  -3.500  -0.2119   0.04213   0.03602  -0.0573  0.9992  0.0711  -2.1229   0.0000   0.0000   0.0000  -0.0230
  -3.000  -0.1171   0.03195   0.02463  -0.0682  0.9905  0.0609  -2.1876   0.0000   0.0000   0.0000  -0.3376
  -2.500  -0.0258   0.02601   0.01729  -0.0757  0.9808  0.0676  -2.0915   0.0000   0.0000   0.0000  -2.7091
  -2.000   0.0583   0.02288   0.01324  -0.0808  0.9677  0.0854  -1.8006   0.0000   0.0000   0.0000   1.6454
  -1.500   0.1394   0.02093   0.01123  -0.0856  0.9535  0.1221  -1.4615   0.0000   0.0000   0.0000   0.8668
  -1.000   0.2176   0.01946   0.01006  -0.0898  0.9371  0.2255  -1.1184   0.0000   0.0000   0.0000   0.6640
  -0.500   0.2949   0.01683   0.00932  -0.0933  0.9217  1.0000  -0.7824   0.0000   0.0000   0.0000   0.5668
   0.000   0.3763   0.01694   0.00883  -0.0979  0.9029  1.0000  -0.5398   0.0000   0.0000   0.0000   0.5097
   0.500   0.4488   0.01699   0.00856  -0.1005  0.8809  1.0000  -0.5866   0.0000   0.0000   0.0000   0.4732
   1.000   0.5181   0.01699   0.00837  -0.1023  0.8581  1.0000  -0.6343   0.0000   0.0000   0.0000   0.4463
   1.500   0.5851   0.01696   0.00823  -0.1035  0.8346  1.0000  -0.6840   0.0000   0.0000   0.0000   0.4252
   2.000   0.6499   0.01693   0.00817  -0.1041  0.8103  1.0000  -0.7358   0.0000   0.0000   0.0000   0.4081
   2.500   0.7122   0.01697   0.00824  -0.1041  0.7850  1.0000  -0.7906   0.0000   0.0000   0.0000   0.3938
   3.000   0.7722   0.01712   0.00844  -0.1037  0.7588  1.0000  -0.8959   0.0000   0.0000   0.0000   0.3815
   3.500   0.8286   0.01746   0.00892  -0.1028  0.7313  1.0000  -1.1617   0.0000   0.0000   0.0000   0.3708
   4.000   0.8833   0.01793   0.00956  -0.1016  0.7035  1.0000  -1.4846   0.0000   0.0000   0.0000   0.3613
   4.500   0.9371   0.01851   0.01041  -0.1002  0.6754  1.0000  -1.8779   0.0000   0.0000   0.0000   0.3528
   5.000   0.9905   0.01907   0.01131  -0.0985  0.6454  1.0000  -2.3212   0.0000   0.0000   0.0000   0.3448
   5.500   1.0302   0.01854   0.01070  -0.0919  0.5601  1.0000  -2.7772   0.0000   0.0000   0.0000   0.3340
   6.000   1.0617   0.01904   0.01109  -0.0854  0.4453  1.0000  -3.2131   0.0000   0.0000   0.0000   0.3246
   6.500   1.0561   0.02411   0.01386  -0.0758  0.1095  1.0000  -3.3729   0.0000   0.0000   0.0000   0.3154
   7.000   1.0729   0.02806   0.01763  -0.0699  0.0722  1.0000  -3.5948   0.0000   0.0000   0.0000   0.3081
   7.500   1.0973   0.03172   0.02125  -0.0648  0.0581  1.0000  -3.8520   0.0000   0.0000   0.0000   0.3015
   8.000   1.1453   0.03599   0.02566  -0.0626  0.0475  1.0000  -4.2574   0.0000   0.0000   0.0000   0.2966
   8.500   1.2006   0.04167   0.03167  -0.0617  0.0413  1.0000  -4.6526   0.0000   0.0000   0.0000   0.2927
   9.000   1.2346   0.04839   0.03939  -0.0581  0.0388  1.0000  -4.8150   0.0000   0.0000   0.0000   0.2878
   9.500   1.2474   0.05582   0.04779  -0.0530  0.0386  1.0000  -4.8557   0.0000   0.0000   0.0000   0.2827
  10.000   1.2390   0.06331   0.05610  -0.0471  0.0386  1.0000  -4.8249   0.0000   0.0000   0.0000   0.2777
  10.500   1.2114   0.07034   0.06373  -0.0410  0.0387  1.0000  -4.7520   0.0000   0.0000   0.0000   0.2730
  11.000   1.1752   0.07847   0.07235  -0.0381  0.0390  1.0000  -4.6401   0.0000   0.0000   0.0000   0.2710
  11.500   1.1366   0.08850   0.08277  -0.0395  0.0396  1.0000  -4.4962   0.0000   0.0000   0.0000   0.2727
  12.000   1.1014   0.10041   0.09497  -0.0445  0.0403  1.0000  -4.3384   0.0000   0.0000   0.0000   0.2778


