xflr5 v6.61

 Calculated polar for: NACA4412_8_00

 1 1 Reynolds number fixed          Mach number fixed         

 xtrf =   1.000 (top)        1.000 (bottom)
 Mach =   0.200     Re =     0.060 e 6     Ncrit =   7.000

  alpha     CL        CD       CDp       Cm    Top Xtr Bot Xtr   Cpmin    Chinge    XCp    
 ------- -------- --------- --------- -------- ------- ------- -------- --------- ---------
 -23.000  -0.7428   0.28297   0.27555   0.0502  1.0000  0.0316  -1.5556   0.0000   0.0000   0.0000   0.3020
 -22.500  -0.7255   0.27686   0.26943   0.0461  1.0000  0.0330  -1.5138   0.0000   0.0000   0.0000   0.2986
 -22.000  -0.7081   0.27108   0.26364   0.0418  1.0000  0.0345  -1.4889   0.0000   0.0000   0.0000   0.2947
 -21.500  -0.6911   0.26595   0.25849   0.0371  1.0000  0.0354  -1.5239   0.0000   0.0000   0.0000   0.2900
 -21.000  -0.6738   0.25958   0.25214   0.0331  1.0000  0.0361  -1.5254   0.0000   0.0000   0.0000   0.2859
 -20.500  -0.6559   0.25293   0.24548   0.0296  1.0000  0.0378  -1.4923   0.0000   0.0000   0.0000   0.2823
 -20.000  -0.6386   0.24716   0.23970   0.0255  1.0000  0.0399  -1.4959   0.0000   0.0000   0.0000   0.2776
 -19.500  -0.6226   0.24248   0.23506   0.0208  1.0000  0.0409  -1.5374   0.0000   0.0000   0.0000   0.2716
 -19.000  -0.6038   0.23465   0.22721   0.0180  1.0000  0.0429  -1.4711   0.0000   0.0000   0.0000   0.2684
 -18.500  -0.5867   0.22870   0.22126   0.0143  1.0000  0.0450  -1.4620   0.0000   0.0000   0.0000   0.2633
 -18.000  -0.5718   0.22409   0.21667   0.0098  1.0000  0.0462  -1.4960   0.0000   0.0000   0.0000   0.2565
 -17.500  -0.5531   0.21619   0.20878   0.0073  1.0000  0.0479  -1.4302   0.0000   0.0000   0.0000   0.2528
 -17.000  -0.5364   0.21007   0.20268   0.0040  1.0000  0.0505  -1.4053   0.0000   0.0000   0.0000   0.2474
 -16.500  -0.5231   0.20548   0.19811  -0.0003  1.0000  0.0519  -1.4516   0.0000   0.0000   0.0000   0.2398
 -16.000  -0.5043   0.19745   0.19010  -0.0024  1.0000  0.0541  -1.4115   0.0000   0.0000   0.0000   0.2359
 -15.500  -0.4900   0.19188   0.18455  -0.0058  1.0000  0.0575  -1.4394   0.0000   0.0000   0.0000   0.2291
 -15.000  -0.4743   0.18508   0.17779  -0.0083  1.0000  0.0598  -1.4348   0.0000   0.0000   0.0000   0.2235
 -14.500  -0.4606   0.17929   0.17201  -0.0113  1.0000  0.0636  -1.4490   0.0000   0.0000   0.0000   0.2169
 -14.000  -0.4472   0.17290   0.16567  -0.0140  1.0000  0.0655  -1.4629   0.0000   0.0000   0.0000   0.2103
 -13.500  -0.4326   0.16643   0.15922  -0.0161  1.0000  0.0693  -1.4475   0.0000   0.0000   0.0000   0.2045
 -13.000  -0.4251   0.16147   0.15434  -0.0195  1.0000  0.0714  -1.5037   0.0000   0.0000   0.0000   0.1962
 -12.500  -0.4078   0.15385   0.14673  -0.0206  1.0000  0.0756  -1.4476   0.0000   0.0000   0.0000   0.1916
 -12.000  -0.4051   0.14967   0.14264  -0.0243  1.0000  0.0782  -1.5216   0.0000   0.0000   0.0000   0.1828
 -11.500  -0.3867   0.14167   0.13466  -0.0248  1.0000  0.0836  -1.4458   0.0000   0.0000   0.0000   0.1787
 -11.000  -0.3767   0.13542   0.12848  -0.0265  1.0000  0.0880  -1.4353   0.0000   0.0000   0.0000   0.1727
 -10.500  -0.3767   0.13128   0.12445  -0.0295  1.0000  0.0929  -1.5051   0.0000   0.0000   0.0000   0.1651
 -10.000  -0.3605   0.12378   0.11699  -0.0296  1.0000  0.0990  -1.4695   0.0000   0.0000   0.0000   0.1616
  -9.500  -0.3537   0.11782   0.11114  -0.0307  1.0000  0.1031  -1.4929   0.0000   0.0000   0.0000   0.1570
  -9.000  -0.3566   0.11356   0.10703  -0.0326  1.0000  0.1087  -1.5570   0.0000   0.0000   0.0000   0.1529
  -8.500  -0.3449   0.10686   0.10042  -0.0318  1.0000  0.1148  -1.5243   0.0000   0.0000   0.0000   0.1525
  -8.000  -0.3455   0.10171   0.09544  -0.0315  1.0000  0.1201  -1.5455   0.0000   0.0000   0.0000   0.1540
  -7.500  -0.3673   0.09906   0.09306  -0.0307  1.0000  0.1258  -1.6311   0.0000   0.0000   0.0000   0.1624
  -7.000  -0.3714   0.09411   0.08828  -0.0283  1.0000  0.1343  -1.6230   0.0000   0.0000   0.0000   0.1702
  -6.500  -0.3761   0.08919   0.08352  -0.0265  1.0000  0.1430  -1.6209   0.0000   0.0000   0.0000   0.1763
  -6.000  -0.3792   0.08411   0.07858  -0.0250  1.0000  0.1510  -1.6157   0.0000   0.0000   0.0000   0.1813
  -5.500  -0.3801   0.07889   0.07347  -0.0249  1.0000  0.1597  -1.6169   0.0000   0.0000   0.0000   0.1821
  -5.000  -0.3739   0.07340   0.06799  -0.0304  1.0000  0.1735  -1.6582   0.0000   0.0000   0.0000   0.1665
  -4.000  -0.2920   0.05216   0.04590  -0.0484  1.0000  0.1003  -1.9969   0.0000   0.0000   0.0000   0.0818
  -3.500  -0.2346   0.04204   0.03491  -0.0553  1.0000  0.0842  -2.1401   0.0000   0.0000   0.0000   0.0109
  -3.000  -0.1726   0.03475   0.02636  -0.0600  1.0000  0.0856  -2.1501   0.0000   0.0000   0.0000  -0.1020
  -2.500  -0.0970   0.03013   0.02076  -0.0652  0.9932  0.0946  -1.9686   0.0000   0.0000   0.0000  -0.4292
  -2.000  -0.0076   0.02700   0.01674  -0.0718  0.9784  0.1164  -1.7277   0.0000   0.0000   0.0000  -9.2900
  -1.500   0.0762   0.02516   0.01470  -0.0773  0.9614  0.1590  -1.4398   0.0000   0.0000   0.0000   1.2700
  -1.000   0.1602   0.02383   0.01349  -0.0826  0.9437  0.2608  -1.1329   0.0000   0.0000   0.0000   0.7678
  -0.500   0.2387   0.02100   0.01266  -0.0863  0.9259  1.0000  -0.8522   0.0000   0.0000   0.0000   0.6120
   0.000   0.3178   0.02150   0.01242  -0.0907  0.9033  1.0000  -0.5769   0.0000   0.0000   0.0000   0.5351
   0.500   0.3928   0.02190   0.01238  -0.0942  0.8800  1.0000  -0.5800   0.0000   0.0000   0.0000   0.4890
   1.000   0.4649   0.02223   0.01244  -0.0970  0.8564  1.0000  -0.6286   0.0000   0.0000   0.0000   0.4573
   1.500   0.5330   0.02253   0.01258  -0.0987  0.8328  1.0000  -0.6779   0.0000   0.0000   0.0000   0.4335
   2.000   0.6006   0.02275   0.01274  -0.1001  0.8103  1.0000  -0.7308   0.0000   0.0000   0.0000   0.4146
   2.500   0.6672   0.02293   0.01291  -0.1011  0.7882  1.0000  -0.7876   0.0000   0.0000   0.0000   0.3990
   3.000   0.7244   0.02341   0.01347  -0.1007  0.7636  1.0000  -0.8432   0.0000   0.0000   0.0000   0.3860
   3.500   0.7837   0.02384   0.01403  -0.1004  0.7406  1.0000  -0.9395   0.0000   0.0000   0.0000   0.3746
   4.000   0.8442   0.02420   0.01457  -0.1000  0.7181  1.0000  -1.1725   0.0000   0.0000   0.0000   0.3646
   4.500   0.8962   0.02498   0.01562  -0.0986  0.6929  1.0000  -1.4340   0.0000   0.0000   0.0000   0.3556
   5.000   0.9509   0.02563   0.01657  -0.0972  0.6680  1.0000  -1.7433   0.0000   0.0000   0.0000   0.3474
   5.500   1.0069   0.02613   0.01746  -0.0957  0.6414  1.0000  -2.1100   0.0000   0.0000   0.0000   0.3396
   6.000   1.0635   0.02576   0.01742  -0.0926  0.6018  1.0000  -2.5600   0.0000   0.0000   0.0000   0.3311
   6.500   1.1051   0.02438   0.01612  -0.0853  0.5240  1.0000  -2.9875   0.0000   0.0000   0.0000   0.3206
   7.000   1.1290   0.02450   0.01630  -0.0773  0.4262  1.0000  -3.3509   0.0000   0.0000   0.0000   0.3111
   7.500   1.1144   0.02800   0.01833  -0.0660  0.1910  1.0000  -3.4936   0.0000   0.0000   0.0000   0.3012
   8.000   1.1056   0.03332   0.02282  -0.0580  0.1185  1.0000  -3.6056   0.0000   0.0000   0.0000   0.2939
   8.500   1.1170   0.03761   0.02695  -0.0524  0.0929  1.0000  -3.8067   0.0000   0.0000   0.0000   0.2876
   9.000   1.1662   0.04179   0.03122  -0.0500  0.0736  1.0000  -4.1282   0.0000   0.0000   0.0000   0.2830
   9.500   1.2369   0.04804   0.03786  -0.0507  0.0620  1.0000  -4.5124   0.0000   0.0000   0.0000   0.2805
  10.000   1.2672   0.05460   0.04513  -0.0477  0.0560  1.0000  -4.7524   0.0000   0.0000   0.0000   0.2766
  10.500   1.2722   0.06183   0.05319  -0.0428  0.0544  1.0000  -4.8237   0.0000   0.0000   0.0000   0.2720
  11.000   1.2584   0.06877   0.06073  -0.0375  0.0531  1.0000  -4.8535   0.0000   0.0000   0.0000   0.2675
  11.500   1.2394   0.07635   0.06872  -0.0339  0.0519  1.0000  -4.8785   0.0000   0.0000   0.0000   0.2645
  12.000   1.2012   0.08515   0.07804  -0.0326  0.0519  1.0000  -4.7673   0.0000   0.0000   0.0000   0.2636
  13.000   1.0825   0.11461   0.10844  -0.0473  0.0569  1.0000  -4.0611   0.0000   0.0000   0.0000   0.2790


