xflr5 v6.61

 Calculated polar for: NACA4412_7_50

 1 1 Reynolds number fixed          Mach number fixed         

 xtrf =   1.000 (top)        1.000 (bottom)
 Mach =   0.200     Re =     0.025 e 6     Ncrit =   7.000

  alpha     CL        CD       CDp       Cm    Top Xtr Bot Xtr   Cpmin    Chinge    XCp    
 ------- -------- --------- --------- -------- ------- ------- -------- --------- ---------
 -30.000  -0.9837   0.36409   0.35337   0.1205  1.0000  0.0507  -1.6945   0.0000   0.0000   0.0000   0.3471
 -29.500  -0.9699   0.36095   0.35019   0.1150  1.0000  0.0518  -1.6908   0.0000   0.0000   0.0000   0.3442
 -29.000  -0.9554   0.35451   0.34371   0.1102  1.0000  0.0530  -1.6575   0.0000   0.0000   0.0000   0.3420
 -28.500  -0.9406   0.34868   0.33783   0.1054  1.0000  0.0549  -1.6361   0.0000   0.0000   0.0000   0.3396
 -28.000  -0.9257   0.34400   0.33309   0.1003  1.0000  0.0567  -1.6377   0.0000   0.0000   0.0000   0.3369
 -27.500  -0.9110   0.34067   0.32972   0.0949  1.0000  0.0579  -1.6535   0.0000   0.0000   0.0000   0.3336
 -27.000  -0.8952   0.33368   0.32271   0.0904  1.0000  0.0593  -1.6353   0.0000   0.0000   0.0000   0.3312
 -26.500  -0.8794   0.32780   0.31678   0.0858  1.0000  0.0616  -1.6196   0.0000   0.0000   0.0000   0.3286
 -26.000  -0.8638   0.32348   0.31242   0.0807  1.0000  0.0637  -1.6217   0.0000   0.0000   0.0000   0.3254
 -25.500  -0.8480   0.31857   0.30750   0.0758  1.0000  0.0650  -1.6203   0.0000   0.0000   0.0000   0.3221
 -25.000  -0.8312   0.31155   0.30043   0.0717  1.0000  0.0680  -1.5885   0.0000   0.0000   0.0000   0.3196
 -24.500  -0.8154   0.30753   0.29639   0.0667  1.0000  0.0706  -1.5874   0.0000   0.0000   0.0000   0.3159
 -24.000  -0.7985   0.30107   0.28992   0.0624  1.0000  0.0725  -1.5649   0.0000   0.0000   0.0000   0.3129
 -23.500  -0.7815   0.29505   0.28387   0.0581  1.0000  0.0759  -1.5376   0.0000   0.0000   0.0000   0.3097
 -23.000  -0.7661   0.29181   0.28062   0.0531  1.0000  0.0780  -1.5383   0.0000   0.0000   0.0000   0.3054
 -22.500  -0.7478   0.28360   0.27239   0.0495  1.0000  0.0808  -1.4911   0.0000   0.0000   0.0000   0.3027
 -22.000  -0.7312   0.27865   0.26743   0.0451  1.0000  0.0843  -1.4831   0.0000   0.0000   0.0000   0.2988
 -21.500  -0.7145   0.27312   0.26191   0.0408  1.0000  0.0864  -1.4890   0.0000   0.0000   0.0000   0.2948
 -21.000  -0.6966   0.26641   0.25517   0.0371  1.0000  0.0906  -1.4741   0.0000   0.0000   0.0000   0.2914
 -20.500  -0.6814   0.26256   0.25137   0.0325  1.0000  0.0933  -1.4919   0.0000   0.0000   0.0000   0.2865
 -20.000  -0.6625   0.25476   0.24353   0.0293  1.0000  0.0986  -1.4638   0.0000   0.0000   0.0000   0.2833
 -19.500  -0.6464   0.24954   0.23834   0.0253  1.0000  0.1020  -1.4652   0.0000   0.0000   0.0000   0.2787
 -19.000  -0.6292   0.24352   0.23232   0.0217  1.0000  0.1076  -1.4495   0.0000   0.0000   0.0000   0.2745
 -18.500  -0.6119   0.23691   0.22572   0.0183  1.0000  0.1116  -1.4327   0.0000   0.0000   0.0000   0.2703
 -18.000  -0.5971   0.23244   0.22127   0.0145  1.0000  0.1168  -1.4297   0.0000   0.0000   0.0000   0.2651
 -17.500  -0.5784   0.22471   0.21356   0.0116  1.0000  0.1218  -1.3954   0.0000   0.0000   0.0000   0.2612
 -17.000  -0.5665   0.22132   0.21024   0.0077  1.0000  0.1262  -1.4023   0.0000   0.0000   0.0000   0.2552
 -16.500  -0.5477   0.21345   0.20234   0.0052  1.0000  0.1335  -1.3628   0.0000   0.0000   0.0000   0.2512
 -16.000  -0.5308   0.20659   0.19553   0.0025  1.0000  0.1401  -1.3611   0.0000   0.0000   0.0000   0.2467
 -15.500  -0.5163   0.20074   0.18972  -0.0003  1.0000  0.1471  -1.3689   0.0000   0.0000   0.0000   0.2416
 -15.000  -0.5044   0.19585   0.18490  -0.0032  1.0000  0.1546  -1.3847   0.0000   0.0000   0.0000   0.2362
 -14.500  -0.4928   0.19086   0.17994  -0.0058  1.0000  0.1632  -1.3953   0.0000   0.0000   0.0000   0.2311
 -14.000  -0.4768   0.18371   0.17283  -0.0078  1.0000  0.1725  -1.3851   0.0000   0.0000   0.0000   0.2266
 -13.500  -0.4621   0.17690   0.16608  -0.0098  1.0000  0.1818  -1.3768   0.0000   0.0000   0.0000   0.2221
 -13.000  -0.4488   0.17048   0.15972  -0.0116  1.0000  0.1917  -1.3704   0.0000   0.0000   0.0000   0.2175
 -12.500  -0.4380   0.16469   0.15398  -0.0133  1.0000  0.2030  -1.3678   0.0000   0.0000   0.0000   0.2131
 -12.000  -0.4308   0.15967   0.14906  -0.0150  1.0000  0.2151  -1.3717   0.0000   0.0000   0.0000   0.2091
 -11.500  -0.4133   0.15159   0.14105  -0.0158  1.0000  0.2305  -1.3357   0.0000   0.0000   0.0000   0.2057
 -11.000  -0.4043   0.14590   0.13545  -0.0167  1.0000  0.2471  -1.3227   0.0000   0.0000   0.0000   0.2028
 -10.500  -0.3990   0.14068   0.13036  -0.0176  1.0000  0.2619  -1.3315   0.0000   0.0000   0.0000   0.2003
 -10.000  -0.3840   0.13342   0.12317  -0.0176  1.0000  0.2821  -1.3244   0.0000   0.0000   0.0000   0.1985
  -9.500  -0.3733   0.12696   0.11683  -0.0175  1.0000  0.3037  -1.3239   0.0000   0.0000   0.0000   0.1977
  -9.000  -0.3657   0.12118   0.11118  -0.0167  1.0000  0.3318  -1.3228   0.0000   0.0000   0.0000   0.1992
  -8.500  -0.3581   0.11519   0.10536  -0.0152  1.0000  0.3642  -1.3159   0.0000   0.0000   0.0000   0.2025
  -8.000  -0.3484   0.10897   0.09927  -0.0128  1.0000  0.4046  -1.2978   0.0000   0.0000   0.0000   0.2081
  -7.500  -0.3397   0.10307   0.09352  -0.0094  1.0000  0.4552  -1.2736   0.0000   0.0000   0.0000   0.2175
  -7.000  -0.3170   0.09540   0.08594  -0.0045  1.0000  0.5400  -1.2128   0.0000   0.0000   0.0000   0.2307
  -6.500  -0.0532   0.06238   0.05185  -0.0348  1.0000  1.0000  -0.9274   0.0000   0.0000   0.0000  -0.4393
  -6.000  -0.0907   0.06319   0.05301  -0.0227  1.0000  0.9601  -0.9629   0.0000   0.0000   0.0000  -0.0188
  -5.500  -0.1835   0.06828   0.05876  -0.0029  1.0000  0.8341  -1.0534   0.0000   0.0000   0.0000   0.2263
  -5.000  -0.2837   0.07274   0.06397   0.0082  1.0000  0.6753  -1.1796   0.0000   0.0000   0.0000   0.2750
  -4.500  -0.3745   0.07509   0.06696  -0.0030  1.0000  0.4283  -1.4103   0.0000   0.0000   0.0000   0.2400
  -4.000  -0.2991   0.06287   0.05391  -0.0402  1.0000  0.1971  -1.7216   0.0000   0.0000   0.0000   0.1134
  -3.500  -0.2470   0.05481   0.04516  -0.0491  1.0000  0.1828  -1.7713   0.0000   0.0000   0.0000   0.0487
  -3.000  -0.1923   0.04786   0.03753  -0.0545  1.0000  0.1807  -1.7443   0.0000   0.0000   0.0000  -0.0362
  -2.500  -0.1330   0.04209   0.03087  -0.0589  1.0000  0.1897  -1.6660   0.0000   0.0000   0.0000  -0.1968
  -2.000  -0.0725   0.03773   0.02544  -0.0617  1.0000  0.2117  -1.5716   0.0000   0.0000   0.0000  -0.6075
  -1.500  -0.0113   0.03457   0.02134  -0.0634  1.0000  0.2531  -1.4303   0.0000   0.0000   0.0000  -5.3818
  -1.000   0.0467   0.03199   0.01829  -0.0640  1.0000  0.3333  -1.2701   0.0000   0.0000   0.0000   1.6285
  -0.500   0.0962   0.02776   0.01611  -0.0619  1.0000  0.6323  -1.1233   0.0000   0.0000   0.0000   0.8952
   0.000   0.1357   0.02796   0.01494  -0.0604  1.0000  1.0000  -0.9699   0.0000   0.0000   0.0000   0.6954
   0.500   0.1759   0.02933   0.01537  -0.0600  1.0000  1.0000  -0.7723   0.0000   0.0000   0.0000   0.5902
   1.000   0.2137   0.03095   0.01637  -0.0597  1.0000  1.0000  -0.5921   0.0000   0.0000   0.0000   0.5279
   1.500   0.2499   0.03280   0.01776  -0.0595  1.0000  1.0000  -0.4723   0.0000   0.0000   0.0000   0.4865
   2.000   0.2846   0.03489   0.01953  -0.0596  1.0000  1.0000  -0.4907   0.0000   0.0000   0.0000   0.4570
   2.500   0.3467   0.03786   0.02224  -0.0650  0.9832  1.0000  -0.5266   0.0000   0.0000   0.0000   0.4348
   3.000   0.4229   0.04119   0.02544  -0.0727  0.9540  1.0000  -0.5753   0.0000   0.0000   0.0000   0.4187
   3.500   0.4905   0.04437   0.02866  -0.0784  0.9252  1.0000  -0.6236   0.0000   0.0000   0.0000   0.4064
   4.000   0.5471   0.04744   0.03186  -0.0821  0.8965  1.0000  -0.6705   0.0000   0.0000   0.0000   0.3962
   4.500   0.6050   0.05069   0.03536  -0.0857  0.8683  1.0000  -0.7300   0.0000   0.0000   0.0000   0.3874
   5.000   0.6609   0.05406   0.03906  -0.0888  0.8400  1.0000  -0.8831   0.0000   0.0000   0.0000   0.3796
   5.500   0.7045   0.05752   0.04294  -0.0899  0.8104  1.0000  -1.0676   0.0000   0.0000   0.0000   0.3725
   6.000   0.7490   0.06119   0.04708  -0.0910  0.7791  1.0000  -1.2870   0.0000   0.0000   0.0000   0.3659
   6.500   0.8036   0.06493   0.05150  -0.0928  0.7448  1.0000  -1.5681   0.0000   0.0000   0.0000   0.3593
   7.000   0.8404   0.06884   0.05604  -0.0921  0.7055  1.0000  -1.8252   0.0000   0.0000   0.0000   0.3530
   7.500   0.8888   0.07221   0.06030  -0.0910  0.6546  1.0000  -2.1693   0.0000   0.0000   0.0000   0.3453
   8.000   1.0889   0.04443   0.03355  -0.0563  0.2831  1.0000  -3.4629   0.0000   0.0000   0.0000   0.2935
   8.500   1.1032   0.05057   0.03857  -0.0501  0.1986  1.0000  -3.5697   0.0000   0.0000   0.0000   0.2866
   9.000   1.1386   0.05777   0.04582  -0.0472  0.1595  1.0000  -3.7186   0.0000   0.0000   0.0000   0.2821
   9.500   1.1678   0.06603   0.05475  -0.0451  0.1406  1.0000  -3.8325   0.0000   0.0000   0.0000   0.2787
  10.000   1.1693   0.07475   0.06423  -0.0423  0.1322  1.0000  -3.8707   0.0000   0.0000   0.0000   0.2759
  10.500   1.1416   0.08442   0.07454  -0.0406  0.1306  1.0000  -3.7753   0.0000   0.0000   0.0000   0.2748
  11.000   1.1009   0.09643   0.08698  -0.0431  0.1323  1.0000  -3.5909   0.0000   0.0000   0.0000   0.2779
  11.500   1.0644   0.11059   0.10129  -0.0491  0.1346  1.0000  -3.3788   0.0000   0.0000   0.0000   0.2845
  12.000   1.0160   0.12989   0.12054  -0.0618  0.1431  1.0000  -2.9821   0.0000   0.0000   0.0000   0.2989
  13.000   0.9840   0.15926   0.14965  -0.0783  0.1510  1.0000  -2.5661   0.0000   0.0000   0.0000   0.3170
  13.500   0.9891   0.17082   0.16118  -0.0830  0.1535  1.0000  -2.4981   0.0000   0.0000   0.0000   0.3209
  14.000   0.9819   0.18350   0.17377  -0.0914  0.1670  1.0000  -2.3097   0.0000   0.0000   0.0000   0.3297
  14.500   0.9814   0.19607   0.18630  -0.0998  0.1987  1.0000  -2.1389   0.0000   0.0000   0.0000   0.3379
  15.000   0.9740   0.21195   0.20218  -0.1150  0.3201  1.0000  -1.8668   0.0000   0.0000   0.0000   0.3538
  15.500   0.9877   0.21984   0.21010  -0.1183  0.3124  1.0000  -1.8618   0.0000   0.0000   0.0000   0.3548
  16.000   1.0002   0.22702   0.21729  -0.1216  0.3023  1.0000  -1.8522   0.0000   0.0000   0.0000   0.3560
  16.500   1.0157   0.23503   0.22532  -0.1250  0.2938  1.0000  -1.8469   0.0000   0.0000   0.0000   0.3567
  17.000   1.0325   0.24298   0.23331  -0.1282  0.2826  1.0000  -1.8443   0.0000   0.0000   0.0000   0.3571
  17.500   1.0471   0.24969   0.24003  -0.1316  0.2686  1.0000  -1.8353   0.0000   0.0000   0.0000   0.3578
  18.000   1.0633   0.25680   0.24717  -0.1349  0.2547  1.0000  -1.8401   0.0000   0.0000   0.0000   0.3582
  18.500   1.0795   0.26397   0.25435  -0.1385  0.2433  1.0000  -1.8647   0.0000   0.0000   0.0000   0.3588
  19.000   1.0957   0.27108   0.26151  -0.1422  0.2322  1.0000  -1.8859   0.0000   0.0000   0.0000   0.3594
  19.500   1.1123   0.27808   0.26853  -0.1459  0.2198  1.0000  -1.9070   0.0000   0.0000   0.0000   0.3599
  20.000   1.1295   0.28538   0.27586  -0.1494  0.2073  1.0000  -1.9287   0.0000   0.0000   0.0000   0.3602


