xflr5 v6.61

 Calculated polar for: NACA4412_7_70

 1 1 Reynolds number fixed          Mach number fixed         

 xtrf =   1.000 (top)        1.000 (bottom)
 Mach =   0.200     Re =     0.080 e 6     Ncrit =   9.000

  alpha     CL        CD       CDp       Cm    Top Xtr Bot Xtr   Cpmin    Chinge    XCp    
 ------- -------- --------- --------- -------- ------- ------- -------- --------- ---------
 -22.500  -0.7317   0.27748   0.27106   0.0479  1.0000  0.0274  -1.5445   0.0000   0.0000   0.0000   0.3012
 -22.000  -0.7143   0.27145   0.26502   0.0437  1.0000  0.0288  -1.5077   0.0000   0.0000   0.0000   0.2976
 -21.500  -0.6968   0.26560   0.25916   0.0394  1.0000  0.0301  -1.4896   0.0000   0.0000   0.0000   0.2935
 -21.000  -0.6797   0.26071   0.25426   0.0346  1.0000  0.0308  -1.5128   0.0000   0.0000   0.0000   0.2883
 -20.500  -0.6620   0.25346   0.24703   0.0311  1.0000  0.0315  -1.4907   0.0000   0.0000   0.0000   0.2848
 -20.000  -0.6443   0.24702   0.24057   0.0275  1.0000  0.0330  -1.4665   0.0000   0.0000   0.0000   0.2809
 -19.500  -0.6268   0.24097   0.23452   0.0235  1.0000  0.0346  -1.4697   0.0000   0.0000   0.0000   0.2763
 -19.000  -0.6104   0.23597   0.22953   0.0190  1.0000  0.0355  -1.5136   0.0000   0.0000   0.0000   0.2702
 -18.500  -0.5926   0.22862   0.22219   0.0158  1.0000  0.0365  -1.4756   0.0000   0.0000   0.0000   0.2663
 -18.000  -0.5751   0.22218   0.21575   0.0126  1.0000  0.0386  -1.4386   0.0000   0.0000   0.0000   0.2617
 -17.500  -0.5593   0.21688   0.21047   0.0084  1.0000  0.0405  -1.4603   0.0000   0.0000   0.0000   0.2553
 -17.000  -0.5422   0.20984   0.20345   0.0054  1.0000  0.0418  -1.4232   0.0000   0.0000   0.0000   0.2505
 -16.500  -0.5252   0.20337   0.19697   0.0024  1.0000  0.0441  -1.3814   0.0000   0.0000   0.0000   0.2455
 -16.000  -0.5109   0.19806   0.19169  -0.0015  1.0000  0.0460  -1.3979   0.0000   0.0000   0.0000   0.2382
 -15.500  -0.4945   0.19088   0.18454  -0.0041  1.0000  0.0473  -1.3919   0.0000   0.0000   0.0000   0.2331
 -15.000  -0.4786   0.18440   0.17806  -0.0068  1.0000  0.0500  -1.3886   0.0000   0.0000   0.0000   0.2276
 -14.500  -0.4678   0.17971   0.17341  -0.0108  1.0000  0.0519  -1.4686   0.0000   0.0000   0.0000   0.2190
 -14.000  -0.4501   0.17168   0.16540  -0.0123  1.0000  0.0540  -1.4255   0.0000   0.0000   0.0000   0.2148
 -13.500  -0.4377   0.16588   0.15963  -0.0152  1.0000  0.0573  -1.4528   0.0000   0.0000   0.0000   0.2077
 -13.000  -0.4243   0.15913   0.15293  -0.0173  1.0000  0.0598  -1.4533   0.0000   0.0000   0.0000   0.2017
 -12.500  -0.4138   0.15353   0.14735  -0.0200  1.0000  0.0639  -1.4782   0.0000   0.0000   0.0000   0.1944
 -12.000  -0.4007   0.14658   0.14045  -0.0218  1.0000  0.0663  -1.4666   0.0000   0.0000   0.0000   0.1887
 -11.500  -0.3913   0.14091   0.13484  -0.0241  1.0000  0.0704  -1.4862   0.0000   0.0000   0.0000   0.1816
 -11.000  -0.3799   0.13420   0.12818  -0.0257  1.0000  0.0730  -1.4769   0.0000   0.0000   0.0000   0.1758
 -10.500  -0.3732   0.12885   0.12290  -0.0280  1.0000  0.0775  -1.5014   0.0000   0.0000   0.0000   0.1688
 -10.000  -0.3613   0.12203   0.11614  -0.0288  1.0000  0.0809  -1.4688   0.0000   0.0000   0.0000   0.1643
  -9.750  -0.3581   0.11932   0.11347  -0.0296  1.0000  0.0837  -1.4719   0.0000   0.0000   0.0000   0.1614
  -9.500  -0.3628   0.11783   0.11205  -0.0317  1.0000  0.0852  -1.5382   0.0000   0.0000   0.0000   0.1571
  -9.250  -0.3517   0.11340   0.10765  -0.0308  1.0000  0.0876  -1.4800   0.0000   0.0000   0.0000   0.1570
  -9.000  -0.3491   0.11082   0.10512  -0.0312  1.0000  0.0913  -1.4909   0.0000   0.0000   0.0000   0.1552
  -8.750  -0.3578   0.10968   0.10408  -0.0331  1.0000  0.0928  -1.5730   0.0000   0.0000   0.0000   0.1524
  -8.500  -0.3442   0.10515   0.09957  -0.0314  1.0000  0.0967  -1.5057   0.0000   0.0000   0.0000   0.1537
  -8.250  -0.3485   0.10332   0.09782  -0.0321  1.0000  0.0999  -1.5473   0.0000   0.0000   0.0000   0.1532
  -8.000  -0.3632   0.10261   0.09726  -0.0331  1.0000  0.1008  -1.6337   0.0000   0.0000   0.0000   0.1547
  -7.750  -0.3450   0.09767   0.09231  -0.0308  1.0000  0.1051  -1.5441   0.0000   0.0000   0.0000   0.1563
  -7.500  -0.3544   0.09621   0.09096  -0.0304  1.0000  0.1079  -1.5862   0.0000   0.0000   0.0000   0.1603
  -7.250  -0.3739   0.09566   0.09058  -0.0300  1.0000  0.1088  -1.6645   0.0000   0.0000   0.0000   0.1664
  -7.000  -0.3634   0.09163   0.08656  -0.0272  1.0000  0.1118  -1.6008   0.0000   0.0000   0.0000   0.1717
  -6.750  -0.3692   0.08967   0.08469  -0.0263  1.0000  0.1151  -1.6169   0.0000   0.0000   0.0000   0.1755
  -6.500  -0.3838   0.08850   0.08364  -0.0295  1.0000  0.1172  -1.7148   0.0000   0.0000   0.0000   0.1705
  -6.250  -0.3776   0.08495   0.08013  -0.0253  1.0000  0.1201  -1.6468   0.0000   0.0000   0.0000   0.1804
  -6.000  -0.3810   0.08278   0.07802  -0.0258  1.0000  0.1245  -1.6675   0.0000   0.0000   0.0000   0.1798
  -5.750  -0.3830   0.08005   0.07535  -0.0271  1.0000  0.1272  -1.6980   0.0000   0.0000   0.0000   0.1769
  -5.500  -0.3803   0.07746   0.07279  -0.0255  1.0000  0.1319  -1.6673   0.0000   0.0000   0.0000   0.1808
  -5.250  -0.3780   0.07449   0.06984  -0.0280  1.0000  0.1365  -1.6958   0.0000   0.0000   0.0000   0.1740
  -5.000  -0.3702   0.07166   0.06697  -0.0323  1.0000  0.1445  -1.7274   0.0000   0.0000   0.0000   0.1608
  -4.750  -0.3664   0.06899   0.06436  -0.0284  1.0000  0.1511  -1.6535   0.0000   0.0000   0.0000   0.1706
  -4.500  -0.3582   0.06604   0.06142  -0.0291  1.0000  0.1591  -1.6288   0.0000   0.0000   0.0000   0.1671
  -4.250  -0.3472   0.06304   0.05838  -0.0305  1.0000  0.1684  -1.6036   0.0000   0.0000   0.0000   0.1605
  -4.000  -0.3337   0.06000   0.05530  -0.0321  1.0000  0.1785  -1.5721   0.0000   0.0000   0.0000   0.1521
  -2.750  -0.1626   0.03559   0.02876  -0.0583  1.0000  0.1106  -1.8357   0.0000   0.0000   0.0000  -0.1121
  -2.500  -0.1246   0.03137   0.02367  -0.0608  1.0000  0.0998  -1.8942   0.0000   0.0000   0.0000  -0.2427
  -2.250  -0.0948   0.02937   0.02129  -0.0619  0.9992  0.1035  -1.8133   0.0000   0.0000   0.0000  -0.4091
  -2.000  -0.0431   0.02698   0.01810  -0.0662  0.9933  0.1079  -1.7659   0.0000   0.0000   0.0000  -1.2984
  -1.750   0.0048   0.02550   0.01628  -0.0700  0.9859  0.1194  -1.6439   0.0000   0.0000   0.0000  14.7936
  -1.500   0.0510   0.02445   0.01503  -0.0735  0.9775  0.1376  -1.4972   0.0000   0.0000   0.0000   1.7010
  -1.250   0.0958   0.02364   0.01416  -0.0768  0.9687  0.1657  -1.3611   0.0000   0.0000   0.0000   1.0560
  -1.000   0.1396   0.02292   0.01358  -0.0799  0.9594  0.2108  -1.2149   0.0000   0.0000   0.0000   0.8248
  -0.750   0.1826   0.02217   0.01314  -0.0828  0.9500  0.2924  -1.0589   0.0000   0.0000   0.0000   0.7049
  -0.500   0.2264   0.01956   0.01260  -0.0851  0.9433  1.0000  -0.9114   0.0000   0.0000   0.0000   0.6266
  -0.250   0.2687   0.01989   0.01241  -0.0879  0.9309  1.0000  -0.7580   0.0000   0.0000   0.0000   0.5773
   0.000   0.3104   0.02018   0.01239  -0.0906  0.9188  1.0000  -0.6099   0.0000   0.0000   0.0000   0.5418
   0.250   0.3515   0.02042   0.01240  -0.0932  0.9067  1.0000  -0.5412   0.0000   0.0000   0.0000   0.5145
   0.500   0.3920   0.02062   0.01242  -0.0955  0.8948  1.0000  -0.5665   0.0000   0.0000   0.0000   0.4929
   0.750   0.4318   0.02077   0.01244  -0.0976  0.8829  1.0000  -0.5923   0.0000   0.0000   0.0000   0.4751
   1.000   0.4711   0.02088   0.01245  -0.0996  0.8711  1.0000  -0.6187   0.0000   0.0000   0.0000   0.4601
   1.250   0.5107   0.02095   0.01244  -0.1015  0.8597  1.0000  -0.6462   0.0000   0.0000   0.0000   0.4473
   1.500   0.5495   0.02098   0.01242  -0.1031  0.8487  1.0000  -0.6743   0.0000   0.0000   0.0000   0.4360
   1.750   0.5946   0.02076   0.01218  -0.1055  0.8405  1.0000  -0.7079   0.0000   0.0000   0.0000   0.4256
   2.000   0.6273   0.02082   0.01223  -0.1060  0.8281  1.0000  -0.7343   0.0000   0.0000   0.0000   0.4168
   2.250   0.6591   0.02091   0.01231  -0.1062  0.8158  1.0000  -0.7612   0.0000   0.0000   0.0000   0.4088
   2.500   0.6901   0.02101   0.01244  -0.1063  0.8034  1.0000  -0.7888   0.0000   0.0000   0.0000   0.4015
   2.750   0.7205   0.02114   0.01261  -0.1062  0.7912  1.0000  -0.8175   0.0000   0.0000   0.0000   0.3947
   3.000   0.7508   0.02127   0.01278  -0.1061  0.7793  1.0000  -0.8482   0.0000   0.0000   0.0000   0.3884
   3.250   0.7817   0.02137   0.01293  -0.1060  0.7678  1.0000  -0.9022   0.0000   0.0000   0.0000   0.3825
   3.500   0.8157   0.02132   0.01297  -0.1062  0.7576  1.0000  -1.0230   0.0000   0.0000   0.0000   0.3769
   3.750   0.8457   0.02144   0.01316  -0.1059  0.7459  1.0000  -1.1530   0.0000   0.0000   0.0000   0.3717
   4.000   0.8721   0.02174   0.01356  -0.1052  0.7329  1.0000  -1.2821   0.0000   0.0000   0.0000   0.3668
   4.250   0.8986   0.02205   0.01401  -0.1045  0.7200  1.0000  -1.4285   0.0000   0.0000   0.0000   0.3622
   4.500   0.9254   0.02236   0.01443  -0.1037  0.7071  1.0000  -1.5814   0.0000   0.0000   0.0000   0.3578
   4.750   0.9525   0.02263   0.01484  -0.1029  0.6940  1.0000  -1.7404   0.0000   0.0000   0.0000   0.3535
   5.000   0.9799   0.02287   0.01522  -0.1020  0.6805  1.0000  -1.9245   0.0000   0.0000   0.0000   0.3494
   5.250   1.0075   0.02303   0.01557  -0.1010  0.6658  1.0000  -2.1358   0.0000   0.0000   0.0000   0.3452
   5.500   1.0419   0.02219   0.01477  -0.0995  0.6440  1.0000  -2.3979   0.0000   0.0000   0.0000   0.3402
   5.750   1.0648   0.02135   0.01395  -0.0960  0.6077  1.0000  -2.6234   0.0000   0.0000   0.0000   0.3345
   6.000   1.0898   0.02067   0.01325  -0.0930  0.5718  1.0000  -2.8845   0.0000   0.0000   0.0000   0.3294
   6.250   1.1077   0.02050   0.01317  -0.0897  0.5337  1.0000  -3.1099   0.0000   0.0000   0.0000   0.3247
   6.500   1.1221   0.02035   0.01303  -0.0857  0.4826  1.0000  -3.3161   0.0000   0.0000   0.0000   0.3197
   6.750   1.1226   0.02071   0.01311  -0.0796  0.3670  1.0000  -3.4306   0.0000   0.0000   0.0000   0.3138
   7.000   1.1043   0.02404   0.01474  -0.0726  0.1710  1.0000  -3.4246   0.0000   0.0000   0.0000   0.3084
   7.250   1.1026   0.02678   0.01696  -0.0683  0.1273  1.0000  -3.4752   0.0000   0.0000   0.0000   0.3044
   7.500   1.1080   0.02890   0.01891  -0.0649  0.1078  1.0000  -3.5659   0.0000   0.0000   0.0000   0.3007
   7.750   1.1205   0.03089   0.02081  -0.0622  0.0950  1.0000  -3.6784   0.0000   0.0000   0.0000   0.2973
   8.000   1.1421   0.03308   0.02285  -0.0608  0.0838  1.0000  -3.8263   0.0000   0.0000   0.0000   0.2948
   8.250   1.1772   0.03579   0.02553  -0.0610  0.0760  1.0000  -3.9894   0.0000   0.0000   0.0000   0.2930
   8.500   1.2078   0.03862   0.02848  -0.0609  0.0692  1.0000  -4.1869   0.0000   0.0000   0.0000   0.2913
   8.750   1.2396   0.04188   0.03189  -0.0609  0.0652  1.0000  -4.3684   0.0000   0.0000   0.0000   0.2897
   9.000   1.2621   0.04545   0.03587  -0.0596  0.0633  1.0000  -4.4716   0.0000   0.0000   0.0000   0.2875
   9.250   1.2737   0.04862   0.03958  -0.0571  0.0612  1.0000  -4.5355   0.0000   0.0000   0.0000   0.2848
   9.500   1.2859   0.05203   0.04332  -0.0551  0.0593  1.0000  -4.6276   0.0000   0.0000   0.0000   0.2826
   9.750   1.2901   0.05590   0.04771  -0.0522  0.0596  1.0000  -4.6326   0.0000   0.0000   0.0000   0.2799
  10.000   1.2853   0.05989   0.05226  -0.0487  0.0606  1.0000  -4.5897   0.0000   0.0000   0.0000   0.2771
  10.250   1.2777   0.06398   0.05681  -0.0454  0.0617  1.0000  -4.5491   0.0000   0.0000   0.0000   0.2745
  10.500   1.2687   0.06805   0.06121  -0.0425  0.0627  1.0000  -4.5184   0.0000   0.0000   0.0000   0.2722
  10.750   1.2614   0.07224   0.06562  -0.0400  0.0637  1.0000  -4.5064   0.0000   0.0000   0.0000   0.2701
  11.000   1.2461   0.07610   0.06976  -0.0373  0.0650  1.0000  -4.4567   0.0000   0.0000   0.0000   0.2681
  11.250   1.2080   0.07996   0.07398  -0.0349  0.0661  1.0000  -4.3097   0.0000   0.0000   0.0000   0.2668
  11.500   1.1772   0.08507   0.07933  -0.0349  0.0672  1.0000  -4.1879   0.0000   0.0000   0.0000   0.2672
  11.750   1.1493   0.09096   0.08542  -0.0366  0.0682  1.0000  -4.0738   0.0000   0.0000   0.0000   0.2691
  12.000   1.1248   0.09750   0.09211  -0.0393  0.0692  1.0000  -3.9645   0.0000   0.0000   0.0000   0.2719
  12.250   1.1234   0.10323   0.09789  -0.0402  0.0714  1.0000  -3.9511   0.0000   0.0000   0.0000   0.2725
  12.500   1.0664   0.11517   0.11001  -0.0508  0.0727  1.0000  -3.5965   0.0000   0.0000   0.0000   0.2842
  12.750   1.0345   0.12799   0.12285  -0.0599  0.0767  1.0000  -3.2864   0.0000   0.0000   0.0000   0.2944
  13.000   1.0287   0.13771   0.13258  -0.0641  0.0855  1.0000  -3.1081   0.0000   0.0000   0.0000   0.2988
  16.500   0.7712   0.19675   0.19198  -0.0862  0.1227  1.0000  -1.4024   0.0000   0.0000   0.0000   0.3478
  17.000   0.7774   0.20366   0.19892  -0.0886  0.1154  1.0000  -1.3801   0.0000   0.0000   0.0000   0.3494
  17.500   0.7857   0.21087   0.20617  -0.0908  0.1082  1.0000  -1.3690   0.0000   0.0000   0.0000   0.3503
  18.000   0.7919   0.21777   0.21310  -0.0933  0.1002  1.0000  -1.3666   0.0000   0.0000   0.0000   0.3519
  18.500   0.8003   0.22510   0.22047  -0.0955  0.0927  1.0000  -1.3948   0.0000   0.0000   0.0000   0.3528
  19.000   0.8018   0.23127   0.22667  -0.0991  0.0865  1.0000  -1.3598   0.0000   0.0000   0.0000   0.3563
  19.500   0.8048   0.23832   0.23374  -0.1025  0.0820  1.0000  -1.3219   0.0000   0.0000   0.0000   0.3595
  20.000   0.8146   0.24612   0.24159  -0.1046  0.0776  1.0000  -1.3476   0.0000   0.0000   0.0000   0.3597


