xflr5 v6.61

 Calculated polar for: NACA4412_7_50

 1 1 Reynolds number fixed          Mach number fixed         

 xtrf =   1.000 (top)        1.000 (bottom)
 Mach =   0.200     Re =     0.050 e 6     Ncrit =   7.000

  alpha     CL        CD       CDp       Cm    Top Xtr Bot Xtr   Cpmin    Chinge    XCp    
 ------- -------- --------- --------- -------- ------- ------- -------- --------- ---------
 -20.500  -0.6704   0.25518   0.24710   0.0329  1.0000  0.0427  -1.4791   0.0000   0.0000   0.0000   0.2875
 -20.000  -0.6531   0.24939   0.24130   0.0288  1.0000  0.0451  -1.4814   0.0000   0.0000   0.0000   0.2830
 -19.500  -0.6375   0.24530   0.23725   0.0240  1.0000  0.0463  -1.5288   0.0000   0.0000   0.0000   0.2771
 -19.000  -0.6183   0.23693   0.22886   0.0213  1.0000  0.0486  -1.4689   0.0000   0.0000   0.0000   0.2741
 -18.500  -0.6013   0.23113   0.22305   0.0174  1.0000  0.0509  -1.4677   0.0000   0.0000   0.0000   0.2691
 -18.000  -0.5869   0.22706   0.21902   0.0129  1.0000  0.0520  -1.5082   0.0000   0.0000   0.0000   0.2625
 -17.500  -0.5672   0.21846   0.21042   0.0105  1.0000  0.0545  -1.4378   0.0000   0.0000   0.0000   0.2594
 -17.000  -0.5513   0.21282   0.20480   0.0069  1.0000  0.0572  -1.4338   0.0000   0.0000   0.0000   0.2536
 -16.500  -0.5359   0.20686   0.19887   0.0033  1.0000  0.0587  -1.4310   0.0000   0.0000   0.0000   0.2477
 -16.000  -0.5183   0.19986   0.19188   0.0007  1.0000  0.0620  -1.3800   0.0000   0.0000   0.0000   0.2431
 -15.500  -0.5070   0.19579   0.18785  -0.0035  1.0000  0.0644  -1.4366   0.0000   0.0000   0.0000   0.2353
 -15.000  -0.4878   0.18747   0.17953  -0.0052  1.0000  0.0686  -1.3949   0.0000   0.0000   0.0000   0.2315
 -14.500  -0.4789   0.18359   0.17572  -0.0093  1.0000  0.0712  -1.4643   0.0000   0.0000   0.0000   0.2233
 -14.000  -0.4592   0.17503   0.16716  -0.0107  1.0000  0.0755  -1.4156   0.0000   0.0000   0.0000   0.2195
 -13.500  -0.4524   0.17109   0.16329  -0.0144  1.0000  0.0781  -1.4837   0.0000   0.0000   0.0000   0.2112
 -13.000  -0.4330   0.16256   0.15478  -0.0156  1.0000  0.0826  -1.4314   0.0000   0.0000   0.0000   0.2072
 -12.500  -0.4275   0.15823   0.15053  -0.0190  1.0000  0.0856  -1.4919   0.0000   0.0000   0.0000   0.1991
 -12.000  -0.4098   0.15032   0.14263  -0.0200  1.0000  0.0910  -1.4437   0.0000   0.0000   0.0000   0.1947
 -11.500  -0.3996   0.14416   0.13654  -0.0221  1.0000  0.0949  -1.4507   0.0000   0.0000   0.0000   0.1885
 -11.000  -0.3956   0.13966   0.13214  -0.0248  1.0000  0.1006  -1.4875   0.0000   0.0000   0.0000   0.1814
 -10.500  -0.3820   0.13265   0.12519  -0.0258  1.0000  0.1080  -1.4497   0.0000   0.0000   0.0000   0.1769
 -10.000  -0.3704   0.12604   0.11865  -0.0267  1.0000  0.1142  -1.4213   0.0000   0.0000   0.0000   0.1724
  -9.500  -0.3642   0.12033   0.11305  -0.0282  1.0000  0.1196  -1.4404   0.0000   0.0000   0.0000   0.1674
  -9.000  -0.3674   0.11645   0.10933  -0.0303  1.0000  0.1259  -1.5066   0.0000   0.0000   0.0000   0.1630
  -8.500  -0.3573   0.10992   0.10291  -0.0299  1.0000  0.1341  -1.4969   0.0000   0.0000   0.0000   0.1618
  -8.000  -0.3517   0.10409   0.09722  -0.0293  1.0000  0.1417  -1.4979   0.0000   0.0000   0.0000   0.1625
  -7.500  -0.3538   0.09923   0.09254  -0.0281  1.0000  0.1504  -1.5132   0.0000   0.0000   0.0000   0.1669
  -7.000  -0.3622   0.09497   0.08850  -0.0258  1.0000  0.1598  -1.5321   0.0000   0.0000   0.0000   0.1756
  -6.500  -0.3692   0.09050   0.08425  -0.0247  1.0000  0.1708  -1.5523   0.0000   0.0000   0.0000   0.1804
  -6.000  -0.3767   0.08620   0.08013  -0.0252  1.0000  0.1828  -1.5875   0.0000   0.0000   0.0000   0.1806
  -5.500  -0.3754   0.08072   0.07479  -0.0248  1.0000  0.1950  -1.5864   0.0000   0.0000   0.0000   0.1819
  -5.000  -0.3685   0.07508   0.06925  -0.0230  1.0000  0.2103  -1.5515   0.0000   0.0000   0.0000   0.1856
  -4.500  -0.3579   0.06944   0.06365  -0.0239  1.0000  0.2305  -1.5264   0.0000   0.0000   0.0000   0.1815
  -3.500  -0.2281   0.04585   0.03845  -0.0549  1.0000  0.1003  -1.9875   0.0000   0.0000   0.0000   0.0065
  -3.000  -0.1713   0.03875   0.03055  -0.0592  1.0000  0.0972  -1.9874   0.0000   0.0000   0.0000  -0.0993
  -2.500  -0.1060   0.03272   0.02317  -0.0631  1.0000  0.1009  -1.9599   0.0000   0.0000   0.0000  -0.3507
  -2.000  -0.0526   0.02955   0.01934  -0.0638  1.0000  0.1142  -1.7839   0.0000   0.0000   0.0000  -0.9734
  -1.500  -0.0015   0.02744   0.01666  -0.0638  1.0000  0.1369  -1.6193   0.0000   0.0000   0.0000  -41.8704
  -1.000   0.0852   0.02593   0.01482  -0.0699  0.9852  0.1993  -1.3254   0.0000   0.0000   0.0000   1.0744
  -0.500   0.1744   0.02380   0.01376  -0.0769  0.9682  0.4379  -1.0233   0.0000   0.0000   0.0000   0.6918
   0.000   0.2556   0.02313   0.01340  -0.0814  0.9443  1.0000  -0.7278   0.0000   0.0000   0.0000   0.5685
   0.500   0.3334   0.02407   0.01374  -0.0864  0.9181  1.0000  -0.5248   0.0000   0.0000   0.0000   0.5083
   1.000   0.4108   0.02490   0.01421  -0.0909  0.8928  1.0000  -0.5733   0.0000   0.0000   0.0000   0.4701
   1.500   0.4845   0.02562   0.01472  -0.0945  0.8676  1.0000  -0.6228   0.0000   0.0000   0.0000   0.4434
   2.000   0.5544   0.02629   0.01531  -0.0971  0.8425  1.0000  -0.6738   0.0000   0.0000   0.0000   0.4232
   2.500   0.6200   0.02698   0.01601  -0.0988  0.8175  1.0000  -0.7263   0.0000   0.0000   0.0000   0.4069
   3.000   0.6814   0.02771   0.01685  -0.0995  0.7928  1.0000  -0.7816   0.0000   0.0000   0.0000   0.3931
   3.500   0.7438   0.02836   0.01767  -0.1001  0.7694  1.0000  -0.8710   0.0000   0.0000   0.0000   0.3812
   4.000   0.8062   0.02896   0.01854  -0.1003  0.7464  1.0000  -1.1132   0.0000   0.0000   0.0000   0.3707
   4.500   0.8584   0.02997   0.01987  -0.0992  0.7206  1.0000  -1.3849   0.0000   0.0000   0.0000   0.3613
   5.000   0.9123   0.03090   0.02122  -0.0979  0.6949  1.0000  -1.7054   0.0000   0.0000   0.0000   0.3527
   5.500   0.9684   0.03159   0.02244  -0.0964  0.6677  1.0000  -2.1028   0.0000   0.0000   0.0000   0.3444
   6.000   1.0345   0.03080   0.02226  -0.0938  0.6316  1.0000  -2.6027   0.0000   0.0000   0.0000   0.3350
   6.500   1.0894   0.02649   0.01805  -0.0836  0.5276  1.0000  -3.1710   0.0000   0.0000   0.0000   0.3203
   7.000   1.0964   0.02672   0.01807  -0.0720  0.3599  1.0000  -3.4463   0.0000   0.0000   0.0000   0.3085
   7.500   1.0750   0.03265   0.02189  -0.0618  0.1496  1.0000  -3.4932   0.0000   0.0000   0.0000   0.2997
   8.000   1.0808   0.03759   0.02649  -0.0555  0.1102  1.0000  -3.6392   0.0000   0.0000   0.0000   0.2930
   8.500   1.1318   0.04232   0.03116  -0.0532  0.0847  1.0000  -3.9355   0.0000   0.0000   0.0000   0.2880
   9.000   1.2088   0.04889   0.03818  -0.0540  0.0700  1.0000  -4.3369   0.0000   0.0000   0.0000   0.2851
   9.500   1.2417   0.05586   0.04593  -0.0511  0.0632  1.0000  -4.5521   0.0000   0.0000   0.0000   0.2810
  10.000   1.2475   0.06359   0.05465  -0.0462  0.0619  1.0000  -4.5853   0.0000   0.0000   0.0000   0.2764
  10.500   1.2302   0.07117   0.06298  -0.0407  0.0617  1.0000  -4.5470   0.0000   0.0000   0.0000   0.2719
  11.000   1.1966   0.07907   0.07145  -0.0366  0.0619  1.0000  -4.4541   0.0000   0.0000   0.0000   0.2689
  11.500   1.1563   0.08864   0.08147  -0.0364  0.0626  1.0000  -4.3146   0.0000   0.0000   0.0000   0.2692
  12.000   1.1161   0.10032   0.09346  -0.0404  0.0636  1.0000  -4.1414   0.0000   0.0000   0.0000   0.2733
  13.000   1.0207   0.13702   0.13044  -0.0646  0.0701  1.0000  -3.3224   0.0000   0.0000   0.0000   0.2997
  13.500   0.8070   0.14243   0.13626  -0.0582  0.0840  1.0000  -2.3448   0.0000   0.0000   0.0000   0.3100


