xflr5 v6.61

 Calculated polar for: NACA4412_8_00

 1 1 Reynolds number fixed          Mach number fixed         

 xtrf =   1.000 (top)        1.000 (bottom)
 Mach =   0.200     Re =     0.060 e 6     Ncrit =   9.000

  alpha     CL        CD       CDp       Cm    Top Xtr Bot Xtr   Cpmin    Chinge    XCp    
 ------- -------- --------- --------- -------- ------- ------- -------- --------- ---------
 -21.000  -0.6739   0.25952   0.25209   0.0334  1.0000  0.0421  -1.4820   0.0000   0.0000   0.0000   0.2864
 -20.500  -0.6563   0.25340   0.24597   0.0296  1.0000  0.0442  -1.4706   0.0000   0.0000   0.0000   0.2823
 -20.000  -0.6398   0.24869   0.24126   0.0249  1.0000  0.0460  -1.5021   0.0000   0.0000   0.0000   0.2767
 -19.500  -0.6218   0.24137   0.23395   0.0216  1.0000  0.0476  -1.4692   0.0000   0.0000   0.0000   0.2730
 -19.000  -0.6043   0.23522   0.22780   0.0180  1.0000  0.0503  -1.4494   0.0000   0.0000   0.0000   0.2684
 -18.500  -0.5891   0.23079   0.22338   0.0135  1.0000  0.0519  -1.4803   0.0000   0.0000   0.0000   0.2619
 -18.000  -0.5705   0.22292   0.21552   0.0107  1.0000  0.0536  -1.4280   0.0000   0.0000   0.0000   0.2582
 -17.500  -0.5536   0.21680   0.20941   0.0074  1.0000  0.0565  -1.4041   0.0000   0.0000   0.0000   0.2530
 -17.000  -0.5409   0.21304   0.20569   0.0028  1.0000  0.0581  -1.4422   0.0000   0.0000   0.0000   0.2453
 -16.500  -0.5207   0.20420   0.19685   0.0009  1.0000  0.0608  -1.3695   0.0000   0.0000   0.0000   0.2420
 -16.000  -0.5063   0.19885   0.19152  -0.0027  1.0000  0.0639  -1.4024   0.0000   0.0000   0.0000   0.2353
 -15.500  -0.4899   0.19186   0.18456  -0.0053  1.0000  0.0664  -1.3973   0.0000   0.0000   0.0000   0.2300
 -15.000  -0.4766   0.18652   0.17925  -0.0086  1.0000  0.0706  -1.4214   0.0000   0.0000   0.0000   0.2232
 -14.500  -0.4605   0.17937   0.17212  -0.0108  1.0000  0.0735  -1.4076   0.0000   0.0000   0.0000   0.2179
 -14.000  -0.4489   0.17413   0.16691  -0.0139  1.0000  0.0775  -1.4343   0.0000   0.0000   0.0000   0.2107
 -13.500  -0.4335   0.16692   0.15975  -0.0159  1.0000  0.0805  -1.4165   0.0000   0.0000   0.0000   0.2053
 -13.000  -0.4242   0.16185   0.15473  -0.0188  1.0000  0.0849  -1.4447   0.0000   0.0000   0.0000   0.1978
 -12.500  -0.4086   0.15442   0.14733  -0.0203  1.0000  0.0887  -1.4123   0.0000   0.0000   0.0000   0.1927
 -12.000  -0.4053   0.15039   0.14337  -0.0236  1.0000  0.0928  -1.4674   0.0000   0.0000   0.0000   0.1845
 -11.500  -0.3875   0.14236   0.13538  -0.0243  1.0000  0.0988  -1.4052   0.0000   0.0000   0.0000   0.1802
 -11.000  -0.3771   0.13609   0.12917  -0.0258  1.0000  0.1043  -1.3904   0.0000   0.0000   0.0000   0.1746
 -10.500  -0.3727   0.13090   0.12410  -0.0280  1.0000  0.1099  -1.4269   0.0000   0.0000   0.0000   0.1682
 -10.000  -0.3675   0.12578   0.11905  -0.0297  1.0000  0.1170  -1.4568   0.0000   0.0000   0.0000   0.1631
  -9.750  -0.3577   0.12148   0.11477  -0.0293  1.0000  0.1197  -1.4335   0.0000   0.0000   0.0000   0.1617
  -9.500  -0.3542   0.11877   0.11211  -0.0298  1.0000  0.1240  -1.4390   0.0000   0.0000   0.0000   0.1599
  -9.250  -0.3635   0.11801   0.11147  -0.0317  1.0000  0.1260  -1.5080   0.0000   0.0000   0.0000   0.1573
  -9.000  -0.3473   0.11286   0.10631  -0.0302  1.0000  0.1305  -1.4474   0.0000   0.0000   0.0000   0.1572
  -8.750  -0.3526   0.11134   0.10489  -0.0312  1.0000  0.1343  -1.4882   0.0000   0.0000   0.0000   0.1561
  -8.500  -0.3461   0.10768   0.10128  -0.0307  1.0000  0.1374  -1.4725   0.0000   0.0000   0.0000   0.1561
  -8.250  -0.3462   0.10539   0.09906  -0.0305  1.0000  0.1424  -1.4795   0.0000   0.0000   0.0000   0.1568
  -8.000  -0.3632   0.10511   0.09896  -0.0312  1.0000  0.1442  -1.5534   0.0000   0.0000   0.0000   0.1595
  -7.750  -0.3473   0.10042   0.09427  -0.0295  1.0000  0.1514  -1.4870   0.0000   0.0000   0.0000   0.1606
  -7.500  -0.3667   0.10016   0.09419  -0.0290  1.0000  0.1534  -1.5530   0.0000   0.0000   0.0000   0.1670
  -7.250  -0.3551   0.09612   0.09015  -0.0271  1.0000  0.1609  -1.4992   0.0000   0.0000   0.0000   0.1696
  -6.750  -0.3669   0.09203   0.08628  -0.0240  1.0000  0.1703  -1.5116   0.0000   0.0000   0.0000   0.1811
  -6.500  -0.3861   0.09151   0.08590  -0.0262  1.0000  0.1733  -1.5930   0.0000   0.0000   0.0000   0.1793
  -6.250  -0.3765   0.08767   0.08210  -0.0222  1.0000  0.1809  -1.5251   0.0000   0.0000   0.0000   0.1880
  -6.000  -0.3825   0.08541   0.07994  -0.0222  1.0000  0.1853  -1.5446   0.0000   0.0000   0.0000   0.1891
  -5.750  -0.3858   0.08337   0.07796  -0.0225  1.0000  0.1930  -1.5530   0.0000   0.0000   0.0000   0.1893
  -5.500  -0.3833   0.08032   0.07497  -0.0202  1.0000  0.1985  -1.5227   0.0000   0.0000   0.0000   0.1950
  -5.250  -0.3850   0.07788   0.07258  -0.0214  1.0000  0.2064  -1.5356   0.0000   0.0000   0.0000   0.1923
  -5.000  -0.3833   0.07539   0.07012  -0.0227  1.0000  0.2163  -1.5380   0.0000   0.0000   0.0000   0.1887
  -4.750  -0.3789   0.07269   0.06743  -0.0232  1.0000  0.2272  -1.5230   0.0000   0.0000   0.0000   0.1868
  -4.500  -0.3733   0.06982   0.06459  -0.0227  1.0000  0.2388  -1.5091   0.0000   0.0000   0.0000   0.1873
  -4.250  -0.3678   0.06699   0.06180  -0.0207  1.0000  0.2523  -1.4831   0.0000   0.0000   0.0000   0.1919
  -3.750  -0.3529   0.06168   0.05651  -0.0192  1.0000  0.2904  -1.4369   0.0000   0.0000   0.0000   0.1938
  -2.750  -0.1763   0.03881   0.03138  -0.0562  1.0000  0.1424  -1.7386   0.0000   0.0000   0.0000  -0.0720
  -2.500  -0.1403   0.03499   0.02688  -0.0589  1.0000  0.1327  -1.7481   0.0000   0.0000   0.0000  -0.1739
  -2.250  -0.1083   0.03243   0.02363  -0.0604  1.0000  0.1346  -1.7432   0.0000   0.0000   0.0000  -0.3135
  -2.000  -0.0821   0.03072   0.02164  -0.0608  1.0000  0.1391  -1.6832   0.0000   0.0000   0.0000  -0.4971
  -1.750  -0.0553   0.02930   0.01983  -0.0612  1.0000  0.1472  -1.6222   0.0000   0.0000   0.0000  -0.8653
  -1.500  -0.0299   0.02820   0.01846  -0.0612  1.0000  0.1574  -1.5467   0.0000   0.0000   0.0000  -1.8163
  -1.250  -0.0050   0.02744   0.01740  -0.0613  1.0000  0.1731  -1.4734   0.0000   0.0000   0.0000  -12.1480
  -1.000   0.0179   0.02689   0.01680  -0.0611  1.0000  0.1928  -1.3947   0.0000   0.0000   0.0000   3.6926
  -0.750   0.0678   0.02630   0.01619  -0.0655  0.9904  0.2388  -1.2535   0.0000   0.0000   0.0000   1.2197
  -0.500   0.1191   0.02565   0.01576  -0.0700  0.9812  0.3245  -1.0939   0.0000   0.0000   0.0000   0.8391
  -0.250   0.1634   0.02298   0.01515  -0.0723  0.9727  1.0000  -0.9751   0.0000   0.0000   0.0000   0.6933
   0.000   0.2089   0.02374   0.01521  -0.0762  0.9585  1.0000  -0.8211   0.0000   0.0000   0.0000   0.6149
   0.250   0.2560   0.02450   0.01557  -0.0804  0.9459  1.0000  -0.6655   0.0000   0.0000   0.0000   0.5638
   0.500   0.2950   0.02515   0.01596  -0.0832  0.9313  1.0000  -0.5374   0.0000   0.0000   0.0000   0.5313
   0.750   0.3350   0.02578   0.01636  -0.0860  0.9177  1.0000  -0.5347   0.0000   0.0000   0.0000   0.5057
   1.000   0.3756   0.02636   0.01678  -0.0888  0.9045  1.0000  -0.5599   0.0000   0.0000   0.0000   0.4852
   1.250   0.4151   0.02691   0.01720  -0.0913  0.8917  1.0000  -0.5853   0.0000   0.0000   0.0000   0.4685
   1.500   0.4536   0.02742   0.01761  -0.0935  0.8790  1.0000  -0.6110   0.0000   0.0000   0.0000   0.4546
   1.750   0.4900   0.02793   0.01805  -0.0954  0.8664  1.0000  -0.6362   0.0000   0.0000   0.0000   0.4427
   2.000   0.5249   0.02841   0.01849  -0.0968  0.8538  1.0000  -0.6617   0.0000   0.0000   0.0000   0.4324
   2.250   0.5579   0.02892   0.01899  -0.0980  0.8412  1.0000  -0.6869   0.0000   0.0000   0.0000   0.4232
   2.500   0.5894   0.02944   0.01951  -0.0988  0.8287  1.0000  -0.7121   0.0000   0.0000   0.0000   0.4151
   2.750   0.6194   0.03000   0.02008  -0.0993  0.8162  1.0000  -0.7375   0.0000   0.0000   0.0000   0.4076
   3.000   0.6484   0.03058   0.02070  -0.0997  0.8039  1.0000  -0.7636   0.0000   0.0000   0.0000   0.4008
   3.250   0.6770   0.03118   0.02137  -0.1000  0.7917  1.0000  -0.7912   0.0000   0.0000   0.0000   0.3945
   3.500   0.7062   0.03176   0.02201  -0.1003  0.7800  1.0000  -0.8217   0.0000   0.0000   0.0000   0.3886
   3.750   0.7399   0.03217   0.02250  -0.1010  0.7691  1.0000  -0.8694   0.0000   0.0000   0.0000   0.3829
   4.000   0.7812   0.03216   0.02265  -0.1024  0.7597  1.0000  -0.9890   0.0000   0.0000   0.0000   0.3772
   4.250   0.8048   0.03289   0.02348  -0.1017  0.7469  1.0000  -1.0902   0.0000   0.0000   0.0000   0.3723
   4.500   0.8287   0.03362   0.02434  -0.1011  0.7341  1.0000  -1.2036   0.0000   0.0000   0.0000   0.3677
   5.000   0.8798   0.03489   0.02593  -0.0998  0.7087  1.0000  -1.4662   0.0000   0.0000   0.0000   0.3587
   5.250   0.9087   0.03528   0.02651  -0.0993  0.6960  1.0000  -1.6230   0.0000   0.0000   0.0000   0.3543
   5.500   0.9403   0.03542   0.02687  -0.0988  0.6831  1.0000  -1.7942   0.0000   0.0000   0.0000   0.3498
   5.750   0.9727   0.03539   0.02711  -0.0980  0.6690  1.0000  -1.9934   0.0000   0.0000   0.0000   0.3453
   6.000   1.0048   0.03512   0.02711  -0.0968  0.6526  1.0000  -2.2223   0.0000   0.0000   0.0000   0.3406
   6.250   1.0629   0.03142   0.02373  -0.0948  0.6244  1.0000  -2.6005   0.0000   0.0000   0.0000   0.3331
   6.500   1.1097   0.02749   0.01988  -0.0906  0.5783  1.0000  -2.9534   0.0000   0.0000   0.0000   0.3251
   6.750   1.1352   0.02596   0.01843  -0.0865  0.5340  1.0000  -3.2087   0.0000   0.0000   0.0000   0.3192
   7.000   1.1472   0.02502   0.01751  -0.0808  0.4746  1.0000  -3.4023   0.0000   0.0000   0.0000   0.3131
   7.250   1.1386   0.02515   0.01732  -0.0728  0.3585  1.0000  -3.4698   0.0000   0.0000   0.0000   0.3062
   7.500   1.1187   0.02802   0.01875  -0.0655  0.2177  1.0000  -3.4549   0.0000   0.0000   0.0000   0.3005
   7.750   1.1133   0.03107   0.02113  -0.0610  0.1671  1.0000  -3.4830   0.0000   0.0000   0.0000   0.2965
   8.000   1.1193   0.03356   0.02331  -0.0578  0.1403  1.0000  -3.5607   0.0000   0.0000   0.0000   0.2930
   8.250   1.1408   0.03600   0.02554  -0.0562  0.1200  1.0000  -3.6925   0.0000   0.0000   0.0000   0.2903
   8.500   1.1808   0.03888   0.02830  -0.0567  0.1046  1.0000  -3.8692   0.0000   0.0000   0.0000   0.2887
   8.750   1.2209   0.04220   0.03153  -0.0577  0.0933  1.0000  -4.0524   0.0000   0.0000   0.0000   0.2877
   9.000   1.2486   0.04566   0.03547  -0.0568  0.0891  1.0000  -4.1567   0.0000   0.0000   0.0000   0.2856
   9.250   1.2734   0.04936   0.03935  -0.0561  0.0845  1.0000  -4.3049   0.0000   0.0000   0.0000   0.2839
   9.500   1.2821   0.05272   0.04329  -0.0535  0.0818  1.0000  -4.3588   0.0000   0.0000   0.0000   0.2813
   9.750   1.2906   0.05658   0.04760  -0.0512  0.0808  1.0000  -4.4040   0.0000   0.0000   0.0000   0.2789
  10.000   1.2914   0.06058   0.05212  -0.0483  0.0810  1.0000  -4.4100   0.0000   0.0000   0.0000   0.2764
  10.250   1.2856   0.06462   0.05662  -0.0452  0.0815  1.0000  -4.3914   0.0000   0.0000   0.0000   0.2740
  10.500   1.2748   0.06862   0.06101  -0.0422  0.0820  1.0000  -4.3607   0.0000   0.0000   0.0000   0.2716
  10.750   1.2590   0.07244   0.06515  -0.0390  0.0826  1.0000  -4.3202   0.0000   0.0000   0.0000   0.2692
  11.000   1.2406   0.07638   0.06935  -0.0364  0.0832  1.0000  -4.2731   0.0000   0.0000   0.0000   0.2673
  11.250   1.2213   0.08066   0.07385  -0.0347  0.0839  1.0000  -4.2214   0.0000   0.0000   0.0000   0.2661
  11.500   1.2027   0.08536   0.07874  -0.0340  0.0845  1.0000  -4.1687   0.0000   0.0000   0.0000   0.2656
  11.750   1.1868   0.09049   0.08402  -0.0341  0.0851  1.0000  -4.1220   0.0000   0.0000   0.0000   0.2658
  12.250   1.0913   0.10720   0.10117  -0.0442  0.0905  1.0000  -3.6361   0.0000   0.0000   0.0000   0.2771
  12.500   1.0759   0.11485   0.10885  -0.0479  0.0923  1.0000  -3.5342   0.0000   0.0000   0.0000   0.2809
  12.750   1.0256   0.13134   0.12532  -0.0610  0.0992  1.0000  -3.0782   0.0000   0.0000   0.0000   0.2960
  13.000   1.0077   0.14321   0.13711  -0.0682  0.1079  1.0000  -2.8202   0.0000   0.0000   0.0000   0.3042


