xflr5 v6.61

 Calculated polar for: NACA4412_7_50

 1 1 Reynolds number fixed          Mach number fixed         

 xtrf =   1.000 (top)        1.000 (bottom)
 Mach =   0.200     Re =     0.025 e 6     Ncrit =   9.000

  alpha     CL        CD       CDp       Cm    Top Xtr Bot Xtr   Cpmin    Chinge    XCp    
 ------- -------- --------- --------- -------- ------- ------- -------- --------- ---------
 -22.500  -0.7490   0.28459   0.27343   0.0497  1.0000  0.0967  -1.4688   0.0000   0.0000   0.0000   0.3030
 -22.000  -0.7335   0.28095   0.26979   0.0450  1.0000  0.1003  -1.4679   0.0000   0.0000   0.0000   0.2987
 -21.500  -0.7151   0.27318   0.26201   0.0414  1.0000  0.1038  -1.4530   0.0000   0.0000   0.0000   0.2956
 -21.000  -0.6993   0.26897   0.25780   0.0370  1.0000  0.1082  -1.4610   0.0000   0.0000   0.0000   0.2913
 -20.500  -0.6809   0.26142   0.25026   0.0335  1.0000  0.1125  -1.4443   0.0000   0.0000   0.0000   0.2879
 -20.000  -0.6668   0.25849   0.24733   0.0290  1.0000  0.1172  -1.4596   0.0000   0.0000   0.0000   0.2829
 -19.500  -0.6471   0.24980   0.23863   0.0260  1.0000  0.1233  -1.4281   0.0000   0.0000   0.0000   0.2798
 -19.000  -0.6311   0.24438   0.23325   0.0222  1.0000  0.1279  -1.4239   0.0000   0.0000   0.0000   0.2753
 -18.500  -0.6155   0.23951   0.22837   0.0186  1.0000  0.1343  -1.4160   0.0000   0.0000   0.0000   0.2707
 -18.000  -0.5967   0.23169   0.22057   0.0156  1.0000  0.1402  -1.3858   0.0000   0.0000   0.0000   0.2669
 -17.500  -0.5823   0.22683   0.21576   0.0120  1.0000  0.1455  -1.3795   0.0000   0.0000   0.0000   0.2619
 -17.000  -0.5672   0.22156   0.21051   0.0089  1.0000  0.1530  -1.3616   0.0000   0.0000   0.0000   0.2571
 -16.500  -0.5489   0.21391   0.20286   0.0062  1.0000  0.1608  -1.3268   0.0000   0.0000   0.0000   0.2531
 -16.000  -0.5327   0.20741   0.19641   0.0035  1.0000  0.1690  -1.3285   0.0000   0.0000   0.0000   0.2486
 -15.500  -0.5176   0.20129   0.19033   0.0009  1.0000  0.1781  -1.3318   0.0000   0.0000   0.0000   0.2440
 -15.000  -0.5030   0.19519   0.18426  -0.0015  1.0000  0.1879  -1.3341   0.0000   0.0000   0.0000   0.2394
 -14.500  -0.4887   0.18905   0.17818  -0.0038  1.0000  0.1982  -1.3346   0.0000   0.0000   0.0000   0.2349
 -14.000  -0.4749   0.18286   0.17203  -0.0059  1.0000  0.2090  -1.3332   0.0000   0.0000   0.0000   0.2305
 -13.500  -0.4613   0.17659   0.16583  -0.0078  1.0000  0.2210  -1.3288   0.0000   0.0000   0.0000   0.2263
 -13.000  -0.4490   0.17056   0.15984  -0.0094  1.0000  0.2342  -1.3240   0.0000   0.0000   0.0000   0.2223
 -12.500  -0.4413   0.16574   0.15510  -0.0110  1.0000  0.2485  -1.3283   0.0000   0.0000   0.0000   0.2186
 -12.000  -0.4244   0.15787   0.14730  -0.0119  1.0000  0.2659  -1.3005   0.0000   0.0000   0.0000   0.2155
 -11.500  -0.4198   0.15347   0.14301  -0.0129  1.0000  0.2845  -1.3020   0.0000   0.0000   0.0000   0.2132
 -10.500  -0.3901   0.13889   0.12856  -0.0133  1.0000  0.3303  -1.2597   0.0000   0.0000   0.0000   0.2098
 -10.000  -0.3796   0.13264   0.12242  -0.0131  1.0000  0.3573  -1.2624   0.0000   0.0000   0.0000   0.2097
  -9.500  -0.3782   0.12817   0.11811  -0.0120  1.0000  0.3879  -1.2759   0.0000   0.0000   0.0000   0.2126
  -9.000  -0.3536   0.11918   0.10918  -0.0104  1.0000  0.4359  -1.2416   0.0000   0.0000   0.0000   0.2147
  -8.500  -0.3375   0.11214   0.10222  -0.0079  1.0000  0.4933  -1.2172   0.0000   0.0000   0.0000   0.2207
  -8.000  -0.3176   0.10479   0.09496  -0.0046  1.0000  0.5682  -1.1813   0.0000   0.0000   0.0000   0.2295
  -7.500  -0.2652   0.09335   0.08347  -0.0018  1.0000  0.7204  -1.0895   0.0000   0.0000   0.0000   0.2360
  -7.000  -0.0707   0.06705   0.05647  -0.0335  1.0000  1.0000  -0.9313   0.0000   0.0000   0.0000  -0.2526
  -6.500  -0.0532   0.06238   0.05186  -0.0348  1.0000  1.0000  -0.9274   0.0000   0.0000   0.0000  -0.4393
  -6.000  -0.0364   0.05796   0.04754  -0.0359  1.0000  1.0000  -0.9194   0.0000   0.0000   0.0000  -0.7844
  -5.500  -0.0549   0.05691   0.04675  -0.0283  1.0000  0.9791  -0.9377   0.0000   0.0000   0.0000  -0.2930
  -5.000  -0.1550   0.06202   0.05255  -0.0048  1.0000  0.8697  -1.0326   0.0000   0.0000   0.0000   0.2105
  -4.500  -0.2430   0.06492   0.05616   0.0094  1.0000  0.7607  -1.1330   0.0000   0.0000   0.0000   0.2845
  -4.000  -0.3216   0.06582   0.05768   0.0197  1.0000  0.6763  -1.2319   0.0000   0.0000   0.0000   0.3086
  -3.000  -0.2455   0.05292   0.04382  -0.0392  1.0000  0.3091  -1.5294   0.0000   0.0000   0.0000   0.0882
  -2.500  -0.1684   0.04542   0.03532  -0.0510  1.0000  0.2850  -1.5088   0.0000   0.0000   0.0000  -0.0558
  -2.000  -0.1019   0.03988   0.02887  -0.0564  1.0000  0.2944  -1.4484   0.0000   0.0000   0.0000  -0.3078
  -1.500  -0.0337   0.03571   0.02366  -0.0602  1.0000  0.3313  -1.3488   0.0000   0.0000   0.0000  -1.5472
  -1.000   0.0310   0.03233   0.01962  -0.0619  1.0000  0.4159  -1.2209   0.0000   0.0000   0.0000   2.2587
  -0.500   0.0792   0.02768   0.01680  -0.0580  1.0000  0.7021  -1.1158   0.0000   0.0000   0.0000   0.9850
   0.000   0.1357   0.02796   0.01494  -0.0604  1.0000  1.0000  -0.9699   0.0000   0.0000   0.0000   0.6954
   0.500   0.1759   0.02933   0.01537  -0.0600  1.0000  1.0000  -0.7723   0.0000   0.0000   0.0000   0.5902
   1.000   0.2137   0.03095   0.01637  -0.0597  1.0000  1.0000  -0.5921   0.0000   0.0000   0.0000   0.5279
   1.500   0.2499   0.03280   0.01776  -0.0595  1.0000  1.0000  -0.4723   0.0000   0.0000   0.0000   0.4865
   2.000   0.2846   0.03489   0.01953  -0.0596  1.0000  1.0000  -0.4907   0.0000   0.0000   0.0000   0.4570
   2.500   0.3183   0.03720   0.02162  -0.0598  1.0000  1.0000  -0.5091   0.0000   0.0000   0.0000   0.4350
   3.000   0.3510   0.03973   0.02401  -0.0601  1.0000  1.0000  -0.5286   0.0000   0.0000   0.0000   0.4180
   3.500   0.3828   0.04248   0.02669  -0.0606  1.0000  1.0000  -0.5490   0.0000   0.0000   0.0000   0.4045
   4.000   0.4136   0.04546   0.02969  -0.0611  1.0000  1.0000  -0.5712   0.0000   0.0000   0.0000   0.3937
   4.500   0.4434   0.04868   0.03297  -0.0618  1.0000  1.0000  -0.5957   0.0000   0.0000   0.0000   0.3849
   5.000   0.4722   0.05216   0.03658  -0.0627  1.0000  1.0000  -0.6242   0.0000   0.0000   0.0000   0.3778
   5.500   0.4997   0.05593   0.04056  -0.0637  1.0000  1.0000  -0.6632   0.0000   0.0000   0.0000   0.3720
   6.000   0.5260   0.06001   0.04488  -0.0649  1.0000  1.0000  -0.7437   0.0000   0.0000   0.0000   0.3674
   6.500   0.5509   0.06445   0.04959  -0.0663  1.0000  1.0000  -0.8494   0.0000   0.0000   0.0000   0.3638
   7.000   0.5743   0.06928   0.05479  -0.0678  1.0000  1.0000  -0.9688   0.0000   0.0000   0.0000   0.3611
   7.500   0.5961   0.07453   0.06041  -0.0697  1.0000  1.0000  -1.0924   0.0000   0.0000   0.0000   0.3594
   8.000   0.6161   0.08029   0.06657  -0.0718  1.0000  1.0000  -1.2205   0.0000   0.0000   0.0000   0.3585
   8.500   0.6342   0.08663   0.07339  -0.0743  1.0000  1.0000  -1.3371   0.0000   0.0000   0.0000   0.3585
   9.000   0.6744   0.09648   0.08387  -0.0830  0.9795  1.0000  -1.5079   0.0000   0.0000   0.0000   0.3639
   9.500   1.1726   0.07450   0.06489  -0.0495  0.2022  1.0000  -3.4846   0.0000   0.0000   0.0000   0.2827
  10.000   1.1343   0.08575   0.07653  -0.0484  0.2037  1.0000  -3.3408   0.0000   0.0000   0.0000   0.2828
  10.500   1.0655   0.10178   0.09270  -0.0549  0.2156  1.0000  -3.0419   0.0000   0.0000   0.0000   0.2914
  11.000   0.9849   0.12516   0.11567  -0.0722  0.2443  1.0000  -2.5756   0.0000   0.0000   0.0000   0.3131
  11.500   0.9751   0.13859   0.12901  -0.0776  0.2486  1.0000  -2.4464   0.0000   0.0000   0.0000   0.3190
  12.000   0.9517   0.15296   0.14323  -0.0863  0.2696  1.0000  -2.2413   0.0000   0.0000   0.0000   0.3297
  12.500   0.8962   0.17326   0.16331  -0.1090  0.4692  1.0000  -1.8250   0.0000   0.0000   0.0000   0.3604
  13.000   0.9006   0.18100   0.17107  -0.1118  0.4657  1.0000  -1.7863   0.0000   0.0000   0.0000   0.3623
  13.500   0.9148   0.18980   0.17992  -0.1142  0.4534  1.0000  -1.7692   0.0000   0.0000   0.0000   0.3625
  14.000   0.9299   0.19844   0.18859  -0.1167  0.4403  1.0000  -1.7517   0.0000   0.0000   0.0000   0.3625
  14.500   0.9425   0.20566   0.19584  -0.1191  0.4235  1.0000  -1.7454   0.0000   0.0000   0.0000   0.3627
  15.000   0.9592   0.21371   0.20395  -0.1215  0.4060  1.0000  -1.7590   0.0000   0.0000   0.0000   0.3624
  15.500   0.9793   0.22283   0.21313  -0.1240  0.3897  1.0000  -1.7766   0.0000   0.0000   0.0000   0.3617
  16.000   0.9951   0.23053   0.22084  -0.1266  0.3730  1.0000  -1.7810   0.0000   0.0000   0.0000   0.3617
  16.500   1.0082   0.23653   0.22684  -0.1296  0.3558  1.0000  -1.7757   0.0000   0.0000   0.0000   0.3621
  17.000   1.0259   0.24423   0.23460  -0.1324  0.3395  1.0000  -1.7781   0.0000   0.0000   0.0000   0.3620
  17.500   1.0498   0.25509   0.24551  -0.1348  0.3222  1.0000  -1.7939   0.0000   0.0000   0.0000   0.3606
  18.000   1.0604   0.25913   0.24953  -0.1384  0.3066  1.0000  -1.7773   0.0000   0.0000   0.0000   0.3619
  18.500   1.0765   0.26572   0.25614  -0.1418  0.2911  1.0000  -1.8036   0.0000   0.0000   0.0000   0.3622
  19.000   1.0943   0.27318   0.26366  -0.1451  0.2767  1.0000  -1.8319   0.0000   0.0000   0.0000   0.3623
  19.500   1.1156   0.28299   0.27353  -0.1479  0.2617  1.0000  -1.8715   0.0000   0.0000   0.0000   0.3614
  20.000   1.1311   0.28949   0.28003  -0.1516  0.2486  1.0000  -1.8845   0.0000   0.0000   0.0000   0.3620


