xflr5 v6.61

 Calculated polar for: NACA4412_7_00

 1 1 Reynolds number fixed          Mach number fixed         

 xtrf =   1.000 (top)        1.000 (bottom)
 Mach =   0.200     Re =     0.025 e 6     Ncrit =   9.000

  alpha     CL        CD       CDp       Cm    Top Xtr Bot Xtr   Cpmin    Chinge    XCp    
 ------- -------- --------- --------- -------- ------- ------- -------- --------- ---------
 -30.000  -0.9962   0.36739   0.35683   0.1239  1.0000  0.0574  -1.6986   0.0000   0.0000   0.0000   0.3503
 -29.500  -0.9825   0.36398   0.35341   0.1184  1.0000  0.0583  -1.6951   0.0000   0.0000   0.0000   0.3475
 -29.000  -0.9679   0.35632   0.34567   0.1139  1.0000  0.0605  -1.6520   0.0000   0.0000   0.0000   0.3456
 -28.500  -0.9533   0.35150   0.34080   0.1088  1.0000  0.0628  -1.6293   0.0000   0.0000   0.0000   0.3430
 -28.000  -0.9389   0.34858   0.33784   0.1033  1.0000  0.0642  -1.6207   0.0000   0.0000   0.0000   0.3399
 -27.500  -0.9236   0.34158   0.33080   0.0987  1.0000  0.0657  -1.6056   0.0000   0.0000   0.0000   0.3375
 -27.000  -0.9080   0.33558   0.32475   0.0940  1.0000  0.0683  -1.5929   0.0000   0.0000   0.0000   0.3350
 -26.500  -0.8927   0.33164   0.32077   0.0889  1.0000  0.0704  -1.5997   0.0000   0.0000   0.0000   0.3319
 -26.000  -0.8772   0.32651   0.31563   0.0840  1.0000  0.0718  -1.6001   0.0000   0.0000   0.0000   0.3289
 -25.500  -0.8605   0.31941   0.30847   0.0797  1.0000  0.0748  -1.5754   0.0000   0.0000   0.0000   0.3264
 -25.000  -0.8449   0.31549   0.30453   0.0747  1.0000  0.0775  -1.5779   0.0000   0.0000   0.0000   0.3230
 -24.500  -0.8284   0.30911   0.29813   0.0702  1.0000  0.0796  -1.5629   0.0000   0.0000   0.0000   0.3200
 -24.000  -0.8116   0.30313   0.29211   0.0659  1.0000  0.0834  -1.5420   0.0000   0.0000   0.0000   0.3171
 -23.500  -0.7967   0.30077   0.28978   0.0607  1.0000  0.0855  -1.5519   0.0000   0.0000   0.0000   0.3128
 -23.000  -0.7780   0.29157   0.28051   0.0571  1.0000  0.0896  -1.5046   0.0000   0.0000   0.0000   0.3106
 -22.500  -0.7627   0.28842   0.27735   0.0522  1.0000  0.0927  -1.5030   0.0000   0.0000   0.0000   0.3063
 -22.000  -0.7442   0.28016   0.26908   0.0486  1.0000  0.0961  -1.4606   0.0000   0.0000   0.0000   0.3035
 -21.500  -0.7282   0.27586   0.26477   0.0441  1.0000  0.1001  -1.4470   0.0000   0.0000   0.0000   0.2994
 -21.000  -0.7103   0.26867   0.25758   0.0403  1.0000  0.1034  -1.4391   0.0000   0.0000   0.0000   0.2961
 -20.500  -0.6941   0.26394   0.25285   0.0362  1.0000  0.1080  -1.4451   0.0000   0.0000   0.0000   0.2919
 -20.000  -0.6760   0.25674   0.24565   0.0326  1.0000  0.1120  -1.4341   0.0000   0.0000   0.0000   0.2884
 -19.500  -0.6614   0.25320   0.24212   0.0283  1.0000  0.1170  -1.4473   0.0000   0.0000   0.0000   0.2835
 -19.000  -0.6421   0.24485   0.23378   0.0252  1.0000  0.1230  -1.4215   0.0000   0.0000   0.0000   0.2803
 -18.500  -0.6262   0.23943   0.22838   0.0215  1.0000  0.1279  -1.4201   0.0000   0.0000   0.0000   0.2758
 -18.000  -0.6114   0.23490   0.22386   0.0178  1.0000  0.1345  -1.4184   0.0000   0.0000   0.0000   0.2710
 -17.500  -0.5923   0.22684   0.21582   0.0150  1.0000  0.1411  -1.3888   0.0000   0.0000   0.0000   0.2674
 -17.000  -0.5766   0.22093   0.20994   0.0117  1.0000  0.1468  -1.3770   0.0000   0.0000   0.0000   0.2628
 -16.500  -0.5651   0.21756   0.20660   0.0082  1.0000  0.1535  -1.3803   0.0000   0.0000   0.0000   0.2573
 -16.000  -0.5463   0.20951   0.19857   0.0057  1.0000  0.1620  -1.3421   0.0000   0.0000   0.0000   0.2535
 -15.500  -0.5297   0.20252   0.19161   0.0032  1.0000  0.1705  -1.3151   0.0000   0.0000   0.0000   0.2493
 -15.000  -0.5145   0.19616   0.18528   0.0007  1.0000  0.1798  -1.3190   0.0000   0.0000   0.0000   0.2448
 -14.500  -0.5002   0.19002   0.17919  -0.0016  1.0000  0.1903  -1.3231   0.0000   0.0000   0.0000   0.2404
 -14.000  -0.4868   0.18401   0.17324  -0.0038  1.0000  0.2016  -1.3272   0.0000   0.0000   0.0000   0.2361
 -13.500  -0.4747   0.17822   0.16751  -0.0058  1.0000  0.2135  -1.3321   0.0000   0.0000   0.0000   0.2318
 -13.000  -0.4641   0.17269   0.16203  -0.0077  1.0000  0.2255  -1.3385   0.0000   0.0000   0.0000   0.2277
 -12.500  -0.4562   0.16771   0.15714  -0.0094  1.0000  0.2378  -1.3487   0.0000   0.0000   0.0000   0.2239
 -12.000  -0.4354   0.15858   0.14806  -0.0103  1.0000  0.2543  -1.3169   0.0000   0.0000   0.0000   0.2208
 -11.500  -0.4289   0.15372   0.14329  -0.0114  1.0000  0.2720  -1.3202   0.0000   0.0000   0.0000   0.2181
 -11.000  -0.4133   0.14618   0.13580  -0.0118  1.0000  0.2939  -1.2931   0.0000   0.0000   0.0000   0.2161
 -10.500  -0.4015   0.13962   0.12933  -0.0120  1.0000  0.3181  -1.2716   0.0000   0.0000   0.0000   0.2148
 -10.000  -0.3919   0.13353   0.12335  -0.0118  1.0000  0.3453  -1.2504   0.0000   0.0000   0.0000   0.2147
  -9.500  -0.3878   0.12850   0.11846  -0.0111  1.0000  0.3742  -1.2561   0.0000   0.0000   0.0000   0.2164
  -9.000  -0.3716   0.12099   0.11105  -0.0098  1.0000  0.4137  -1.2455   0.0000   0.0000   0.0000   0.2188
  -8.500  -0.3537   0.11340   0.10354  -0.0075  1.0000  0.4679  -1.2262   0.0000   0.0000   0.0000   0.2239
  -8.000  -0.3393   0.10671   0.09696  -0.0036  1.0000  0.5419  -1.2049   0.0000   0.0000   0.0000   0.2344
  -7.500  -0.2941   0.09579   0.08602  -0.0001  1.0000  0.6713  -1.1366   0.0000   0.0000   0.0000   0.2438
  -7.000  -0.0823   0.06676   0.05623  -0.0318  1.0000  1.0000  -0.9344   0.0000   0.0000   0.0000  -0.1576
  -6.500  -0.0643   0.06202   0.05154  -0.0332  1.0000  1.0000  -0.9412   0.0000   0.0000   0.0000  -0.2924
  -6.000  -0.0468   0.05753   0.04715  -0.0345  1.0000  1.0000  -0.9437   0.0000   0.0000   0.0000  -0.5198
  -5.500  -0.0454   0.05469   0.04449  -0.0316  1.0000  0.9914  -0.9532   0.0000   0.0000   0.0000  -0.4779
  -5.000  -0.1425   0.05981   0.05027  -0.0075  1.0000  0.8935  -1.0358   0.0000   0.0000   0.0000   0.1892
  -4.500  -0.2244   0.06250   0.05364   0.0072  1.0000  0.7899  -1.1199   0.0000   0.0000   0.0000   0.2778
  -4.000  -0.3045   0.06388   0.05567   0.0187  1.0000  0.7047  -1.2096   0.0000   0.0000   0.0000   0.3089
  -3.000  -0.2420   0.05316   0.04420  -0.0383  1.0000  0.3220  -1.5103   0.0000   0.0000   0.0000   0.0899
  -2.500  -0.1593   0.04532   0.03533  -0.0517  1.0000  0.2833  -1.5201   0.0000   0.0000   0.0000  -0.0774
  -2.000  -0.0864   0.03947   0.02844  -0.0589  1.0000  0.2863  -1.4554   0.0000   0.0000   0.0000  -0.4360
  -1.500  -0.0177   0.03518   0.02307  -0.0625  1.0000  0.3200  -1.3592   0.0000   0.0000   0.0000  -3.3099
  -1.000   0.0487   0.03163   0.01881  -0.0644  1.0000  0.4029  -1.2282   0.0000   0.0000   0.0000   1.5773
   0.000   0.1545   0.02710   0.01392  -0.0625  1.0000  1.0000  -0.9665   0.0000   0.0000   0.0000   0.6549
   0.500   0.1954   0.02839   0.01427  -0.0620  1.0000  1.0000  -0.7528   0.0000   0.0000   0.0000   0.5669
   1.000   0.2337   0.02993   0.01520  -0.0617  1.0000  1.0000  -0.5614   0.0000   0.0000   0.0000   0.5126
   1.500   0.2703   0.03171   0.01653  -0.0615  1.0000  1.0000  -0.4723   0.0000   0.0000   0.0000   0.4758
   2.000   0.3053   0.03374   0.01825  -0.0615  1.0000  1.0000  -0.4909   0.0000   0.0000   0.0000   0.4492
   2.500   0.3392   0.03600   0.02032  -0.0616  1.0000  1.0000  -0.5098   0.0000   0.0000   0.0000   0.4291
   3.000   0.3720   0.03850   0.02269  -0.0619  1.0000  1.0000  -0.5295   0.0000   0.0000   0.0000   0.4135
   3.500   0.4038   0.04122   0.02538  -0.0624  1.0000  1.0000  -0.5503   0.0000   0.0000   0.0000   0.4011
   4.000   0.4347   0.04417   0.02838  -0.0630  1.0000  1.0000  -0.5729   0.0000   0.0000   0.0000   0.3910
   4.500   0.4645   0.04738   0.03168  -0.0637  1.0000  1.0000  -0.5984   0.0000   0.0000   0.0000   0.3828
   5.000   0.4933   0.05085   0.03531  -0.0646  1.0000  1.0000  -0.6295   0.0000   0.0000   0.0000   0.3761
   5.500   0.5208   0.05462   0.03934  -0.0656  1.0000  1.0000  -0.6978   0.0000   0.0000   0.0000   0.3707
   6.000   0.5470   0.05871   0.04371  -0.0668  1.0000  1.0000  -0.8108   0.0000   0.0000   0.0000   0.3663
   6.500   0.5717   0.06318   0.04854  -0.0682  1.0000  1.0000  -0.9421   0.0000   0.0000   0.0000   0.3630
   7.000   0.5949   0.06805   0.05379  -0.0699  1.0000  1.0000  -1.0836   0.0000   0.0000   0.0000   0.3607
   7.500   0.6162   0.07340   0.05956  -0.0718  1.0000  1.0000  -1.2269   0.0000   0.0000   0.0000   0.3592
   8.500   1.1712   0.05952   0.04879  -0.0550  0.2006  1.0000  -3.5456   0.0000   0.0000   0.0000   0.2886
   9.000   1.1778   0.06903   0.05910  -0.0521  0.1897  1.0000  -3.5619   0.0000   0.0000   0.0000   0.2855
   9.500   1.1521   0.07961   0.07032  -0.0501  0.1894  1.0000  -3.4547   0.0000   0.0000   0.0000   0.2844
  10.000   1.1127   0.09119   0.08218  -0.0503  0.1930  1.0000  -3.2953   0.0000   0.0000   0.0000   0.2858
  11.000   0.9976   0.12742   0.11815  -0.0724  0.2255  1.0000  -2.5969   0.0000   0.0000   0.0000   0.3127
  11.500   0.9686   0.14278   0.13331  -0.0820  0.2427  1.0000  -2.3639   0.0000   0.0000   0.0000   0.3244
  12.000   0.9548   0.15673   0.14716  -0.0902  0.2689  1.0000  -2.1862   0.0000   0.0000   0.0000   0.3339
  12.500   0.7030   0.15908   0.15006  -0.0854  0.4843  1.0000  -1.4151   0.0000   0.0000   0.0000   0.3622
  13.000   0.7039   0.16467   0.15573  -0.0862  0.4689  1.0000  -1.3772   0.0000   0.0000   0.0000   0.3628
  13.500   0.7069   0.17030   0.16143  -0.0872  0.4528  1.0000  -1.3426   0.0000   0.0000   0.0000   0.3632
  14.000   0.7139   0.17649   0.16774  -0.0883  0.4337  1.0000  -1.3152   0.0000   0.0000   0.0000   0.3630
  14.500   0.7252   0.18390   0.17523  -0.0897  0.4171  1.0000  -1.2971   0.0000   0.0000   0.0000   0.3625
  15.000   0.7345   0.19096   0.18235  -0.0910  0.4005  1.0000  -1.2970   0.0000   0.0000   0.0000   0.3623
  15.500   0.7377   0.19591   0.18735  -0.0923  0.3844  1.0000  -1.2793   0.0000   0.0000   0.0000   0.3631
  16.000   0.7448   0.20198   0.19348  -0.0938  0.3678  1.0000  -1.2681   0.0000   0.0000   0.0000   0.3633
  16.500   0.7587   0.21011   0.20172  -0.0952  0.3494  1.0000  -1.2715   0.0000   0.0000   0.0000   0.3623
  17.000   0.7677   0.21720   0.20885  -0.0969  0.3347  1.0000  -1.2585   0.0000   0.0000   0.0000   0.3624
  17.500   0.7724   0.22270   0.21441  -0.0986  0.3207  1.0000  -1.2322   0.0000   0.0000   0.0000   0.3633
  18.000   0.7779   0.22838   0.22015  -0.1005  0.3051  1.0000  -1.2061   0.0000   0.0000   0.0000   0.3641
  18.500   0.7867   0.23522   0.22705  -0.1022  0.2889  1.0000  -1.2075   0.0000   0.0000   0.0000   0.3642
  19.000   0.7969   0.24287   0.23480  -0.1040  0.2747  1.0000  -1.2209   0.0000   0.0000   0.0000   0.3642
  19.500   0.8056   0.25028   0.24228  -0.1059  0.2621  1.0000  -1.2257   0.0000   0.0000   0.0000   0.3644
  20.000   0.8161   0.25868   0.25073  -0.1078  0.2494  1.0000  -1.2334   0.0000   0.0000   0.0000   0.3644


