xflr5 v6.61

 Calculated polar for: NACA4412_7_70

 1 1 Reynolds number fixed          Mach number fixed         

 xtrf =   1.000 (top)        1.000 (bottom)
 Mach =   0.200     Re =     0.050 e 6     Ncrit =   7.000

  alpha     CL        CD       CDp       Cm    Top Xtr Bot Xtr   Cpmin    Chinge    XCp    
 ------- -------- --------- --------- -------- ------- ------- -------- --------- ---------
 -23.000  -0.7519   0.28450   0.27644   0.0523  1.0000  0.0366  -1.5610   0.0000   0.0000   0.0000   0.3048
 -22.500  -0.7346   0.27840   0.27032   0.0481  1.0000  0.0382  -1.5243   0.0000   0.0000   0.0000   0.3014
 -22.000  -0.7173   0.27280   0.26470   0.0437  1.0000  0.0398  -1.5058   0.0000   0.0000   0.0000   0.2974
 -21.500  -0.7007   0.26826   0.26016   0.0389  1.0000  0.0407  -1.5209   0.0000   0.0000   0.0000   0.2925
 -21.000  -0.6826   0.26076   0.25267   0.0354  1.0000  0.0420  -1.4908   0.0000   0.0000   0.0000   0.2894
 -20.500  -0.6650   0.25466   0.24655   0.0315  1.0000  0.0444  -1.4799   0.0000   0.0000   0.0000   0.2854
 -20.000  -0.6487   0.25002   0.24192   0.0269  1.0000  0.0461  -1.5134   0.0000   0.0000   0.0000   0.2799
 -19.500  -0.6305   0.24261   0.23452   0.0236  1.0000  0.0477  -1.4794   0.0000   0.0000   0.0000   0.2763
 -19.000  -0.6130   0.23647   0.22838   0.0200  1.0000  0.0502  -1.4639   0.0000   0.0000   0.0000   0.2718
 -18.500  -0.5973   0.23169   0.22360   0.0156  1.0000  0.0518  -1.4874   0.0000   0.0000   0.0000   0.2658
 -18.000  -0.5792   0.22428   0.21621   0.0126  1.0000  0.0535  -1.4481   0.0000   0.0000   0.0000   0.2617
 -17.500  -0.5621   0.21809   0.21002   0.0092  1.0000  0.0563  -1.4235   0.0000   0.0000   0.0000   0.2568
 -17.000  -0.5483   0.21367   0.20564   0.0049  1.0000  0.0580  -1.4484   0.0000   0.0000   0.0000   0.2498
 -16.500  -0.5293   0.20559   0.19756   0.0026  1.0000  0.0605  -1.3817   0.0000   0.0000   0.0000   0.2459
 -16.000  -0.5148   0.20025   0.19225  -0.0010  1.0000  0.0639  -1.4018   0.0000   0.0000   0.0000   0.2395
 -15.500  -0.4981   0.19324   0.18527  -0.0036  1.0000  0.0667  -1.3965   0.0000   0.0000   0.0000   0.2344
 -15.000  -0.4850   0.18804   0.18010  -0.0069  1.0000  0.0706  -1.4277   0.0000   0.0000   0.0000   0.2276
 -14.500  -0.4687   0.18085   0.17293  -0.0092  1.0000  0.0734  -1.4182   0.0000   0.0000   0.0000   0.2224
 -14.000  -0.4565   0.17539   0.16751  -0.0122  1.0000  0.0774  -1.4429   0.0000   0.0000   0.0000   0.2156
 -13.500  -0.4418   0.16847   0.16063  -0.0144  1.0000  0.0802  -1.4387   0.0000   0.0000   0.0000   0.2100
 -13.000  -0.4310   0.16300   0.15521  -0.0171  1.0000  0.0847  -1.4594   0.0000   0.0000   0.0000   0.2032
 -12.500  -0.4167   0.15596   0.14821  -0.0189  1.0000  0.0881  -1.4455   0.0000   0.0000   0.0000   0.1977
 -12.000  -0.4106   0.15132   0.14364  -0.0218  1.0000  0.0927  -1.4865   0.0000   0.0000   0.0000   0.1902
 -11.500  -0.3952   0.14394   0.13631  -0.0229  1.0000  0.0989  -1.4476   0.0000   0.0000   0.0000   0.1855
 -11.000  -0.3844   0.13761   0.13005  -0.0245  1.0000  0.1045  -1.4375   0.0000   0.0000   0.0000   0.1799
 -10.500  -0.3803   0.13255   0.12511  -0.0269  1.0000  0.1097  -1.4672   0.0000   0.0000   0.0000   0.1734
 -10.000  -0.3719   0.12675   0.11937  -0.0282  1.0000  0.1167  -1.4558   0.0000   0.0000   0.0000   0.1685
  -9.500  -0.3598   0.11999   0.11269  -0.0286  1.0000  0.1230  -1.4495   0.0000   0.0000   0.0000   0.1648
  -9.000  -0.3543   0.11428   0.10712  -0.0295  1.0000  0.1291  -1.4732   0.0000   0.0000   0.0000   0.1614
  -8.000  -0.3628   0.10568   0.09889  -0.0305  1.0000  0.1440  -1.5618   0.0000   0.0000   0.0000   0.1617
  -7.500  -0.3679   0.10103   0.09444  -0.0288  1.0000  0.1534  -1.5766   0.0000   0.0000   0.0000   0.1681
  -7.000  -0.3754   0.09652   0.09013  -0.0274  1.0000  0.1632  -1.5973   0.0000   0.0000   0.0000   0.1737
  -6.000  -0.3781   0.08587   0.07982  -0.0245  1.0000  0.1848  -1.5926   0.0000   0.0000   0.0000   0.1828
  -5.500  -0.3761   0.08048   0.07455  -0.0227  1.0000  0.1973  -1.5733   0.0000   0.0000   0.0000   0.1873
  -5.000  -0.3734   0.07556   0.06971  -0.0259  1.0000  0.2157  -1.5936   0.0000   0.0000   0.0000   0.1786
  -3.500  -0.2333   0.04544   0.03803  -0.0542  1.0000  0.0991  -1.9936   0.0000   0.0000   0.0000   0.0147
  -3.000  -0.1742   0.03826   0.02988  -0.0592  1.0000  0.0993  -1.9940   0.0000   0.0000   0.0000  -0.0933
  -2.500  -0.1147   0.03304   0.02367  -0.0619  1.0000  0.1043  -1.8966   0.0000   0.0000   0.0000  -0.2950
  -2.000  -0.0584   0.02958   0.01920  -0.0630  1.0000  0.1178  -1.7888   0.0000   0.0000   0.0000  -0.8391
  -1.500  -0.0002   0.02759   0.01671  -0.0644  0.9968  0.1436  -1.5879   0.0000   0.0000   0.0000  -260.5365
  -1.000   0.0917   0.02612   0.01499  -0.0714  0.9796  0.2143  -1.2969   0.0000   0.0000   0.0000   1.0319
  -0.500   0.1779   0.02355   0.01408  -0.0777  0.9633  0.5355  -0.9975   0.0000   0.0000   0.0000   0.6877
   0.000   0.2578   0.02345   0.01371  -0.0820  0.9373  1.0000  -0.7106   0.0000   0.0000   0.0000   0.5681
   0.500   0.3388   0.02436   0.01403  -0.0874  0.9128  1.0000  -0.5343   0.0000   0.0000   0.0000   0.5073
   1.000   0.4102   0.02518   0.01451  -0.0909  0.8862  1.0000  -0.5796   0.0000   0.0000   0.0000   0.4703
   1.500   0.4812   0.02592   0.01504  -0.0940  0.8607  1.0000  -0.6277   0.0000   0.0000   0.0000   0.4436
   2.000   0.5512   0.02659   0.01562  -0.0966  0.8363  1.0000  -0.6790   0.0000   0.0000   0.0000   0.4231
   2.500   0.6247   0.02705   0.01609  -0.0992  0.8143  1.0000  -0.7377   0.0000   0.0000   0.0000   0.4063
   3.000   0.6832   0.02783   0.01696  -0.0995  0.7891  1.0000  -0.7913   0.0000   0.0000   0.0000   0.3927
   3.500   0.7396   0.02869   0.01797  -0.0993  0.7644  1.0000  -0.8568   0.0000   0.0000   0.0000   0.3809
   4.000   0.7991   0.02942   0.01895  -0.0992  0.7413  1.0000  -1.0723   0.0000   0.0000   0.0000   0.3704
   4.500   0.8593   0.03005   0.01988  -0.0989  0.7182  1.0000  -1.3496   0.0000   0.0000   0.0000   0.3608
   5.000   0.9101   0.03112   0.02135  -0.0974  0.6920  1.0000  -1.6420   0.0000   0.0000   0.0000   0.3523
   5.500   0.9636   0.03196   0.02268  -0.0957  0.6649  1.0000  -1.9903   0.0000   0.0000   0.0000   0.3441
   6.000   1.0238   0.03198   0.02327  -0.0935  0.6335  1.0000  -2.4459   0.0000   0.0000   0.0000   0.3356
   6.500   1.0892   0.02761   0.01917  -0.0852  0.5476  1.0000  -3.0337   0.0000   0.0000   0.0000   0.3218
   7.000   1.1113   0.02688   0.01848  -0.0752  0.4334  1.0000  -3.4066   0.0000   0.0000   0.0000   0.3105
   7.500   1.0905   0.03085   0.02066  -0.0631  0.1890  1.0000  -3.4955   0.0000   0.0000   0.0000   0.3000
   8.000   1.0843   0.03638   0.02545  -0.0558  0.1269  1.0000  -3.5970   0.0000   0.0000   0.0000   0.2930
   8.500   1.1085   0.04095   0.02993  -0.0512  0.0977  1.0000  -3.8112   0.0000   0.0000   0.0000   0.2871
   9.000   1.1849   0.04646   0.03563  -0.0516  0.0759  1.0000  -4.2063   0.0000   0.0000   0.0000   0.2839
   9.500   1.2379   0.05360   0.04349  -0.0504  0.0676  1.0000  -4.4896   0.0000   0.0000   0.0000   0.2805
  10.000   1.2554   0.06086   0.05148  -0.0466  0.0629  1.0000  -4.6359   0.0000   0.0000   0.0000   0.2763
  10.500   1.2449   0.06844   0.05993  -0.0412  0.0623  1.0000  -4.6198   0.0000   0.0000   0.0000   0.2717
  11.000   1.2163   0.07614   0.06825  -0.0364  0.0625  1.0000  -4.5471   0.0000   0.0000   0.0000   0.2680
  11.500   1.1787   0.08508   0.07769  -0.0348  0.0629  1.0000  -4.4301   0.0000   0.0000   0.0000   0.2670
  12.000   1.1389   0.09592   0.08890  -0.0372  0.0637  1.0000  -4.2774   0.0000   0.0000   0.0000   0.2695
  13.000   1.0285   0.13208   0.12547  -0.0607  0.0695  1.0000  -3.4471   0.0000   0.0000   0.0000   0.2952


