xflr5 v6.61

 Calculated polar for: NACA4412_7_50

 1 1 Reynolds number fixed          Mach number fixed         

 xtrf =   1.000 (top)        1.000 (bottom)
 Mach =   0.200     Re =     0.100 e 6     Ncrit =   7.000

  alpha     CL        CD       CDp       Cm    Top Xtr Bot Xtr   Cpmin    Chinge    XCp    
 ------- -------- --------- --------- -------- ------- ------- -------- --------- ---------
 -19.500  -0.6307   0.24051   0.23473   0.0248  1.0000  0.0231  -1.5049   0.0000   0.0000   0.0000   0.2784
 -19.000  -0.6132   0.23423   0.22845   0.0211  1.0000  0.0242  -1.4880   0.0000   0.0000   0.0000   0.2740
 -18.500  -0.5959   0.22799   0.22221   0.0173  1.0000  0.0254  -1.4908   0.0000   0.0000   0.0000   0.2690
 -18.000  -0.5790   0.22215   0.21638   0.0132  1.0000  0.0262  -1.5263   0.0000   0.0000   0.0000   0.2631
 -17.500  -0.5627   0.21594   0.21019   0.0095  1.0000  0.0266  -1.5424   0.0000   0.0000   0.0000   0.2574
 -17.000  -0.5452   0.20890   0.20315   0.0068  1.0000  0.0278  -1.4662   0.0000   0.0000   0.0000   0.2534
 -16.500  -0.5286   0.20262   0.19688   0.0035  1.0000  0.0297  -1.4446   0.0000   0.0000   0.0000   0.2478
 -16.000  -0.5146   0.19748   0.19176  -0.0009  1.0000  0.0308  -1.5055   0.0000   0.0000   0.0000   0.2398
 -15.500  -0.4971   0.18976   0.18405  -0.0029  1.0000  0.0321  -1.4125   0.0000   0.0000   0.0000   0.2360
 -15.000  -0.4816   0.18337   0.17767  -0.0057  1.0000  0.0338  -1.4042   0.0000   0.0000   0.0000   0.2302
 -14.500  -0.4681   0.17751   0.17184  -0.0092  1.0000  0.0354  -1.4722   0.0000   0.0000   0.0000   0.2225
 -14.000  -0.4542   0.17076   0.16512  -0.0119  1.0000  0.0362  -1.4958   0.0000   0.0000   0.0000   0.2163
 -13.500  -0.4391   0.16405   0.15842  -0.0139  1.0000  0.0381  -1.4663   0.0000   0.0000   0.0000   0.2111
 -13.000  -0.4270   0.15797   0.15237  -0.0168  1.0000  0.0402  -1.5089   0.0000   0.0000   0.0000   0.2036
 -12.500  -0.4175   0.15197   0.14643  -0.0199  1.0000  0.0410  -1.5772   0.0000   0.0000   0.0000   0.1954
 -12.000  -0.4019   0.14488   0.13935  -0.0209  1.0000  0.0435  -1.5079   0.0000   0.0000   0.0000   0.1912
 -11.500  -0.3957   0.13968   0.13421  -0.0245  1.0000  0.0461  -1.5978   0.0000   0.0000   0.0000   0.1817
 -11.000  -0.3804   0.13237   0.12694  -0.0250  1.0000  0.0487  -1.5220   0.0000   0.0000   0.0000   0.1778
 -10.500  -0.3742   0.12688   0.12152  -0.0279  1.0000  0.0516  -1.5795   0.0000   0.0000   0.0000   0.1694
 -10.000  -0.3636   0.12019   0.11488  -0.0290  1.0000  0.0532  -1.5595   0.0000   0.0000   0.0000   0.1644
  -9.500  -0.3548   0.11433   0.10908  -0.0302  1.0000  0.0565  -1.5432   0.0000   0.0000   0.0000   0.1592
  -9.000  -0.3618   0.11020   0.10511  -0.0341  1.0000  0.0581  -1.6923   0.0000   0.0000   0.0000   0.1508
  -8.500  -0.3441   0.10289   0.09785  -0.0320  1.0000  0.0615  -1.5739   0.0000   0.0000   0.0000   0.1521
  -8.000  -0.3541   0.09881   0.09395  -0.0336  1.0000  0.0642  -1.7006   0.0000   0.0000   0.0000   0.1508
  -7.500  -0.3495   0.09302   0.08827  -0.0311  1.0000  0.0667  -1.6610   0.0000   0.0000   0.0000   0.1570
  -7.000  -0.3677   0.08962   0.08508  -0.0287  1.0000  0.0702  -1.7299   0.0000   0.0000   0.0000   0.1686
  -6.000  -0.3817   0.07994   0.07563  -0.0316  1.0000  0.0779  -1.8744   0.0000   0.0000   0.0000   0.1648
  -5.500  -0.3776   0.07454   0.07032  -0.0283  1.0000  0.0821  -1.8023   0.0000   0.0000   0.0000   0.1729
  -5.000  -0.3649   0.06803   0.06380  -0.0326  1.0000  0.0872  -1.8447   0.0000   0.0000   0.0000   0.1586
  -4.500  -0.3083   0.05935   0.05492  -0.0442  0.9930  0.0972  -1.7926   0.0000   0.0000   0.0000   0.1045
  -4.000  -0.2028   0.04118   0.03563  -0.0674  0.9822  0.0587  -2.2290   0.0000   0.0000   0.0000  -0.0861
  -3.500  -0.1138   0.02967   0.02254  -0.0777  0.9734  0.0513  -2.4416   0.0000   0.0000   0.0000  -0.4396
  -3.000  -0.0315   0.02432   0.01583  -0.0832  0.9631  0.0581  -2.2805   0.0000   0.0000   0.0000  -2.4201
  -2.500   0.0448   0.02147   0.01242  -0.0870  0.9501  0.0707  -1.9521   0.0000   0.0000   0.0000   2.2087
  -2.000   0.1219   0.01952   0.01038  -0.0909  0.9372  0.0958  -1.6078   0.0000   0.0000   0.0000   1.0000
  -1.500   0.1978   0.01803   0.00902  -0.0945  0.9234  0.1517  -1.2705   0.0000   0.0000   0.0000   0.7297
  -1.000   0.2688   0.01670   0.00824  -0.0973  0.9071  0.2983  -0.9437   0.0000   0.0000   0.0000   0.6127
  -0.500   0.3490   0.01450   0.00757  -0.1008  0.8938  1.0000  -0.6306   0.0000   0.0000   0.0000   0.5389
   0.000   0.4195   0.01438   0.00704  -0.1028  0.8745  1.0000  -0.5845   0.0000   0.0000   0.0000   0.4946
   0.500   0.4886   0.01421   0.00660  -0.1043  0.8544  1.0000  -0.6315   0.0000   0.0000   0.0000   0.4627
   1.000   0.5507   0.01414   0.00635  -0.1045  0.8302  1.0000  -0.6772   0.0000   0.0000   0.0000   0.4385
   1.500   0.6113   0.01412   0.00621  -0.1044  0.8047  1.0000  -0.7245   0.0000   0.0000   0.0000   0.4191
   2.000   0.6702   0.01418   0.00618  -0.1040  0.7778  1.0000  -0.7741   0.0000   0.0000   0.0000   0.4030
   2.500   0.7273   0.01436   0.00632  -0.1032  0.7500  1.0000  -0.8265   0.0000   0.0000   0.0000   0.3894
   3.000   0.7830   0.01466   0.00660  -0.1023  0.7220  1.0000  -0.8987   0.0000   0.0000   0.0000   0.3777
   3.500   0.8377   0.01507   0.00706  -0.1013  0.6945  1.0000  -1.1355   0.0000   0.0000   0.0000   0.3675
   4.000   0.8916   0.01557   0.00764  -0.1001  0.6676  1.0000  -1.4246   0.0000   0.0000   0.0000   0.3584
   4.500   0.9449   0.01614   0.00836  -0.0989  0.6409  1.0000  -1.7581   0.0000   0.0000   0.0000   0.3503
   5.000   0.9965   0.01673   0.00917  -0.0971  0.6109  1.0000  -2.1629   0.0000   0.0000   0.0000   0.3426
   5.500   1.0381   0.01679   0.00912  -0.0924  0.5415  1.0000  -2.5784   0.0000   0.0000   0.0000   0.3335
   6.000   1.0758   0.01734   0.00970  -0.0877  0.4615  1.0000  -3.0218   0.0000   0.0000   0.0000   0.3255
   6.500   1.0908   0.01963   0.01089  -0.0802  0.2239  1.0000  -3.3512   0.0000   0.0000   0.0000   0.3168
   7.000   1.0947   0.02457   0.01461  -0.0728  0.0782  1.0000  -3.5514   0.0000   0.0000   0.0000   0.3093
   7.500   1.1130   0.02777   0.01786  -0.0670  0.0589  1.0000  -3.8228   0.0000   0.0000   0.0000   0.3024
   8.000   1.1360   0.03115   0.02132  -0.0619  0.0493  1.0000  -4.0897   0.0000   0.0000   0.0000   0.2961
   8.500   1.1778   0.03520   0.02538  -0.0595  0.0414  1.0000  -4.4971   0.0000   0.0000   0.0000   0.2915
   9.000   1.2272   0.04022   0.03071  -0.0583  0.0354  1.0000  -4.9235   0.0000   0.0000   0.0000   0.2879
   9.500   1.2619   0.04650   0.03792  -0.0549  0.0331  1.0000  -5.1205   0.0000   0.0000   0.0000   0.2833
  10.000   1.2750   0.05328   0.04553  -0.0500  0.0323  1.0000  -5.2273   0.0000   0.0000   0.0000   0.2784
  10.500   1.2777   0.05979   0.05246  -0.0453  0.0307  1.0000  -5.4008   0.0000   0.0000   0.0000   0.2741
  11.000   1.2454   0.06630   0.05968  -0.0385  0.0304  1.0000  -5.3075   0.0000   0.0000   0.0000   0.2689
  11.500   1.2101   0.07425   0.06819  -0.0354  0.0303  1.0000  -5.2022   0.0000   0.0000   0.0000   0.2666
  12.000   1.1735   0.08389   0.07829  -0.0361  0.0304  1.0000  -5.0774   0.0000   0.0000   0.0000   0.2675
  12.500   1.1380   0.09526   0.09000  -0.0402  0.0307  1.0000  -4.9349   0.0000   0.0000   0.0000   0.2713
  13.500   1.0198   0.14202   0.13736  -0.0714  0.0384  1.0000  -3.5231   0.0000   0.0000   0.0000   0.3057
  14.000   1.0131   0.15636   0.15166  -0.0785  0.0403  1.0000  -3.2877   0.0000   0.0000   0.0000   0.3127


