xflr5 v6.61

 Calculated polar for: NACA4412_7_50

 1 1 Reynolds number fixed          Mach number fixed         

 xtrf =   1.000 (top)        1.000 (bottom)
 Mach =   0.200     Re =     0.080 e 6     Ncrit =   9.000

  alpha     CL        CD       CDp       Cm    Top Xtr Bot Xtr   Cpmin    Chinge    XCp    
 ------- -------- --------- --------- -------- ------- ------- -------- --------- ---------
 -18.000  -0.5806   0.22275   0.21635   0.0137  1.0000  0.0370  -1.4619   0.0000   0.0000   0.0000   0.2640
 -17.500  -0.5635   0.21653   0.21013   0.0103  1.0000  0.0393  -1.4404   0.0000   0.0000   0.0000   0.2590
 -17.000  -0.5493   0.21208   0.20570   0.0057  1.0000  0.0407  -1.4927   0.0000   0.0000   0.0000   0.2515
 -16.500  -0.5306   0.20387   0.19750   0.0036  1.0000  0.0425  -1.4121   0.0000   0.0000   0.0000   0.2481
 -16.000  -0.5145   0.19765   0.19129   0.0004  1.0000  0.0449  -1.3897   0.0000   0.0000   0.0000   0.2423
 -15.500  -0.5025   0.19323   0.18691  -0.0040  1.0000  0.0462  -1.4378   0.0000   0.0000   0.0000   0.2340
 -15.000  -0.4837   0.18482   0.17850  -0.0056  1.0000  0.0482  -1.3818   0.0000   0.0000   0.0000   0.2305
 -14.500  -0.4693   0.17876   0.17246  -0.0086  1.0000  0.0510  -1.4049   0.0000   0.0000   0.0000   0.2240
 -14.000  -0.4583   0.17331   0.16706  -0.0122  1.0000  0.0523  -1.4698   0.0000   0.0000   0.0000   0.2161
 -13.500  -0.4411   0.16576   0.15952  -0.0136  1.0000  0.0553  -1.4234   0.0000   0.0000   0.0000   0.2119
 -13.000  -0.4330   0.16107   0.15488  -0.0174  1.0000  0.0579  -1.4991   0.0000   0.0000   0.0000   0.2030
 -12.500  -0.4158   0.15315   0.14697  -0.0184  1.0000  0.0614  -1.4421   0.0000   0.0000   0.0000   0.1990
 -12.000  -0.4119   0.14902   0.14291  -0.0223  1.0000  0.0644  -1.5319   0.0000   0.0000   0.0000   0.1895
 -11.500  -0.3931   0.14066   0.13458  -0.0226  1.0000  0.0681  -1.4533   0.0000   0.0000   0.0000   0.1861
 -11.000  -0.3916   0.13653   0.13054  -0.0264  1.0000  0.0711  -1.5423   0.0000   0.0000   0.0000   0.1767
 -10.500  -0.3731   0.12838   0.12241  -0.0263  1.0000  0.0752  -1.4580   0.0000   0.0000   0.0000   0.1735
 -10.000  -0.3768   0.12483   0.11898  -0.0303  1.0000  0.0781  -1.5659   0.0000   0.0000   0.0000   0.1642
  -9.750  -0.3609   0.11940   0.11355  -0.0287  1.0000  0.0807  -1.4616   0.0000   0.0000   0.0000   0.1648
  -9.500  -0.3574   0.11666   0.11086  -0.0295  1.0000  0.0835  -1.4603   0.0000   0.0000   0.0000   0.1622
  -9.250  -0.3618   0.11512   0.10940  -0.0314  1.0000  0.0851  -1.5222   0.0000   0.0000   0.0000   0.1580
  -9.000  -0.3528   0.11099   0.10530  -0.0308  1.0000  0.0870  -1.4844   0.0000   0.0000   0.0000   0.1576
  -8.750  -0.3483   0.10813   0.10248  -0.0308  1.0000  0.0905  -1.4794   0.0000   0.0000   0.0000   0.1567
  -8.500  -0.3550   0.10672   0.10116  -0.0323  1.0000  0.0926  -1.5471   0.0000   0.0000   0.0000   0.1545
  -8.250  -0.3460   0.10278   0.09726  -0.0311  1.0000  0.0957  -1.5083   0.0000   0.0000   0.0000   0.1555
  -8.000  -0.3477   0.10066   0.09522  -0.0312  1.0000  0.0993  -1.5293   0.0000   0.0000   0.0000   0.1560
  -7.750  -0.3618   0.09985   0.09455  -0.0317  1.0000  0.1006  -1.6063   0.0000   0.0000   0.0000   0.1585
  -7.500  -0.3490   0.09559   0.09029  -0.0298  1.0000  0.1045  -1.5426   0.0000   0.0000   0.0000   0.1607
  -7.250  -0.3580   0.09406   0.08888  -0.0288  1.0000  0.1074  -1.5741   0.0000   0.0000   0.0000   0.1661
  -7.000  -0.3748   0.09324   0.08822  -0.0294  1.0000  0.1087  -1.6528   0.0000   0.0000   0.0000   0.1687
  -6.750  -0.3681   0.08957   0.08458  -0.0265  1.0000  0.1114  -1.6027   0.0000   0.0000   0.0000   0.1750
  -6.500  -0.3715   0.08743   0.08251  -0.0259  1.0000  0.1150  -1.6128   0.0000   0.0000   0.0000   0.1776
  -6.250  -0.3834   0.08614   0.08131  -0.0308  1.0000  0.1173  -1.7249   0.0000   0.0000   0.0000   0.1673
  -6.000  -0.3769   0.08253   0.07776  -0.0253  1.0000  0.1205  -1.6385   0.0000   0.0000   0.0000   0.1805
  -5.750  -0.3793   0.08039   0.07566  -0.0284  1.0000  0.1255  -1.6901   0.0000   0.0000   0.0000   0.1730
  -5.500  -0.3772   0.07731   0.07263  -0.0267  1.0000  0.1282  -1.6675   0.0000   0.0000   0.0000   0.1771
  -5.000  -0.3689   0.07168   0.06704  -0.0278  1.0000  0.1382  -1.6584   0.0000   0.0000   0.0000   0.1728
  -4.750  -0.3598   0.06855   0.06388  -0.0311  1.0000  0.1455  -1.6743   0.0000   0.0000   0.0000   0.1617
  -4.500  -0.3490   0.06555   0.06085  -0.0331  1.0000  0.1546  -1.6610   0.0000   0.0000   0.0000   0.1535
  -4.250  -0.3385   0.06263   0.05792  -0.0335  1.0000  0.1648  -1.6244   0.0000   0.0000   0.0000   0.1492
  -4.000  -0.3266   0.05974   0.05499  -0.0339  1.0000  0.1756  -1.5813   0.0000   0.0000   0.0000   0.1444
  -2.750  -0.1598   0.03656   0.02984  -0.0585  1.0000  0.1179  -1.8107   0.0000   0.0000   0.0000  -0.1193
  -2.500  -0.1197   0.03173   0.02417  -0.0613  1.0000  0.0999  -1.8998   0.0000   0.0000   0.0000  -0.2668
  -2.250  -0.0889   0.02923   0.02106  -0.0624  1.0000  0.1001  -1.8712   0.0000   0.0000   0.0000  -0.4577
  -2.000  -0.0528   0.02738   0.01882  -0.0644  0.9975  0.1047  -1.7675   0.0000   0.0000   0.0000  -0.9791
  -1.750  -0.0033   0.02569   0.01660  -0.0684  0.9906  0.1149  -1.6728   0.0000   0.0000   0.0000  -20.8493
  -1.500   0.0442   0.02446   0.01511  -0.0721  0.9828  0.1305  -1.5400   0.0000   0.0000   0.0000   1.8892
  -1.250   0.0905   0.02354   0.01405  -0.0756  0.9745  0.1557  -1.3850   0.0000   0.0000   0.0000   1.0894
  -1.000   0.1356   0.02279   0.01341  -0.0790  0.9657  0.1973  -1.2412   0.0000   0.0000   0.0000   0.8346
  -0.750   0.1795   0.02205   0.01293  -0.0820  0.9565  0.2737  -1.0878   0.0000   0.0000   0.0000   0.7083
  -0.500   0.2201   0.01928   0.01244  -0.0839  0.9491  1.0000  -0.9345   0.0000   0.0000   0.0000   0.6318
  -0.250   0.2659   0.01964   0.01217  -0.0873  0.9376  1.0000  -0.7767   0.0000   0.0000   0.0000   0.5783
   0.000   0.3098   0.01995   0.01215  -0.0904  0.9260  1.0000  -0.6166   0.0000   0.0000   0.0000   0.5417
   0.250   0.3528   0.02019   0.01215  -0.0933  0.9144  1.0000  -0.5355   0.0000   0.0000   0.0000   0.5141
   0.500   0.3948   0.02039   0.01216  -0.0960  0.9027  1.0000  -0.5614   0.0000   0.0000   0.0000   0.4924
   0.750   0.4356   0.02053   0.01217  -0.0983  0.8909  1.0000  -0.5878   0.0000   0.0000   0.0000   0.4747
   1.000   0.4757   0.02063   0.01217  -0.1005  0.8791  1.0000  -0.6145   0.0000   0.0000   0.0000   0.4599
   1.250   0.5149   0.02070   0.01218  -0.1023  0.8672  1.0000  -0.6416   0.0000   0.0000   0.0000   0.4473
   1.500   0.5521   0.02076   0.01219  -0.1037  0.8553  1.0000  -0.6684   0.0000   0.0000   0.0000   0.4362
   1.750   0.5875   0.02081   0.01222  -0.1047  0.8432  1.0000  -0.6952   0.0000   0.0000   0.0000   0.4264
   2.000   0.6217   0.02087   0.01227  -0.1054  0.8312  1.0000  -0.7223   0.0000   0.0000   0.0000   0.4175
   2.250   0.6551   0.02093   0.01233  -0.1059  0.8191  1.0000  -0.7500   0.0000   0.0000   0.0000   0.4095
   2.500   0.6880   0.02098   0.01241  -0.1063  0.8073  1.0000  -0.7789   0.0000   0.0000   0.0000   0.4021
   2.750   0.7212   0.02101   0.01249  -0.1066  0.7960  1.0000  -0.8096   0.0000   0.0000   0.0000   0.3952
   3.000   0.7596   0.02079   0.01232  -0.1075  0.7869  1.0000  -0.8470   0.0000   0.0000   0.0000   0.3887
   3.250   0.7878   0.02099   0.01257  -0.1071  0.7740  1.0000  -0.9255   0.0000   0.0000   0.0000   0.3828
   3.500   0.8157   0.02121   0.01289  -0.1066  0.7612  1.0000  -1.0406   0.0000   0.0000   0.0000   0.3773
   3.750   0.8433   0.02145   0.01323  -0.1060  0.7484  1.0000  -1.1705   0.0000   0.0000   0.0000   0.3722
   4.000   0.8708   0.02171   0.01358  -0.1054  0.7357  1.0000  -1.3135   0.0000   0.0000   0.0000   0.3673
   4.250   0.8986   0.02196   0.01398  -0.1048  0.7231  1.0000  -1.4677   0.0000   0.0000   0.0000   0.3626
   4.500   0.9267   0.02220   0.01434  -0.1041  0.7104  1.0000  -1.6327   0.0000   0.0000   0.0000   0.3582
   4.750   0.9550   0.02240   0.01469  -0.1034  0.6974  1.0000  -1.8189   0.0000   0.0000   0.0000   0.3538
   5.000   0.9830   0.02260   0.01504  -0.1026  0.6837  1.0000  -2.0283   0.0000   0.0000   0.0000   0.3496
   5.250   1.0099   0.02273   0.01537  -0.1014  0.6677  1.0000  -2.2466   0.0000   0.0000   0.0000   0.3454
   5.500   1.0398   0.02173   0.01441  -0.0987  0.6384  1.0000  -2.4999   0.0000   0.0000   0.0000   0.3397
   5.750   1.0658   0.02056   0.01316  -0.0951  0.5973  1.0000  -2.7534   0.0000   0.0000   0.0000   0.3336
   6.000   1.0868   0.02022   0.01288  -0.0920  0.5601  1.0000  -2.9996   0.0000   0.0000   0.0000   0.3287
   6.250   1.1041   0.01999   0.01266  -0.0883  0.5141  1.0000  -3.2249   0.0000   0.0000   0.0000   0.3237
   6.500   1.1109   0.02006   0.01264  -0.0830  0.4323  1.0000  -3.3809   0.0000   0.0000   0.0000   0.3181
   6.750   1.0943   0.02258   0.01358  -0.0755  0.1996  1.0000  -3.3892   0.0000   0.0000   0.0000   0.3120
   7.000   1.0896   0.02576   0.01595  -0.0708  0.1305  1.0000  -3.4189   0.0000   0.0000   0.0000   0.3078
   7.250   1.0942   0.02798   0.01792  -0.0673  0.1084  1.0000  -3.5041   0.0000   0.0000   0.0000   0.3040
   7.500   1.1055   0.02996   0.01985  -0.0644  0.0949  1.0000  -3.6090   0.0000   0.0000   0.0000   0.3005
   7.750   1.1246   0.03208   0.02183  -0.0627  0.0835  1.0000  -3.7459   0.0000   0.0000   0.0000   0.2976
   8.000   1.1574   0.03468   0.02437  -0.0625  0.0756  1.0000  -3.8971   0.0000   0.0000   0.0000   0.2956
   8.250   1.1880   0.03741   0.02719  -0.0623  0.0685  1.0000  -4.0929   0.0000   0.0000   0.0000   0.2937
   8.500   1.2241   0.04095   0.03076  -0.0629  0.0646  1.0000  -4.2982   0.0000   0.0000   0.0000   0.2924
   8.750   1.2445   0.04415   0.03452  -0.0611  0.0628  1.0000  -4.3830   0.0000   0.0000   0.0000   0.2898
   9.000   1.2595   0.04729   0.03812  -0.0590  0.0602  1.0000  -4.4744   0.0000   0.0000   0.0000   0.2873
   9.250   1.2760   0.05097   0.04207  -0.0575  0.0587  1.0000  -4.5822   0.0000   0.0000   0.0000   0.2852
   9.500   1.2799   0.05479   0.04652  -0.0543  0.0595  1.0000  -4.5652   0.0000   0.0000   0.0000   0.2823
   9.750   1.2768   0.05887   0.05120  -0.0508  0.0608  1.0000  -4.5177   0.0000   0.0000   0.0000   0.2794
  10.000   1.2726   0.06310   0.05587  -0.0478  0.0622  1.0000  -4.4854   0.0000   0.0000   0.0000   0.2769
  10.250   1.2700   0.06751   0.06058  -0.0454  0.0635  1.0000  -4.4766   0.0000   0.0000   0.0000   0.2749
  10.500   1.2595   0.07154   0.06496  -0.0424  0.0652  1.0000  -4.4289   0.0000   0.0000   0.0000   0.2725
  10.750   1.2260   0.07499   0.06881  -0.0383  0.0667  1.0000  -4.2934   0.0000   0.0000   0.0000   0.2699
  11.000   1.2003   0.07930   0.07338  -0.0364  0.0680  1.0000  -4.2009   0.0000   0.0000   0.0000   0.2687
  11.250   1.1791   0.08417   0.07844  -0.0360  0.0692  1.0000  -4.1273   0.0000   0.0000   0.0000   0.2687
  11.500   1.1730   0.08953   0.08392  -0.0361  0.0716  1.0000  -4.0999   0.0000   0.0000   0.0000   0.2686
  12.000   1.0953   0.10391   0.09870  -0.0445  0.0730  1.0000  -3.7365   0.0000   0.0000   0.0000   0.2779
  12.500   1.0304   0.12730   0.12220  -0.0614  0.0801  1.0000  -3.1843   0.0000   0.0000   0.0000   0.2967
  12.750   0.8729   0.11941   0.11465  -0.0454  0.0779  1.0000  -2.8965   0.0000   0.0000   0.0000   0.2898
  13.000   0.7677   0.15114   0.14625  -0.0705  0.1861  1.0000  -1.6075   0.0000   0.0000   0.0000   0.3314
  13.500   0.7617   0.15791   0.15303  -0.0730  0.1768  1.0000  -1.5560   0.0000   0.0000   0.0000   0.3349
  14.000   0.7593   0.16469   0.15983  -0.0755  0.1682  1.0000  -1.5168   0.0000   0.0000   0.0000   0.3381
  14.500   0.7603   0.17142   0.16657  -0.0778  0.1592  1.0000  -1.4895   0.0000   0.0000   0.0000   0.3406
  15.000   0.7635   0.17789   0.17308  -0.0800  0.1479  1.0000  -1.4731   0.0000   0.0000   0.0000   0.3425
  15.500   0.7762   0.18501   0.18024  -0.0811  0.1357  1.0000  -1.5055   0.0000   0.0000   0.0000   0.3415
  16.000   0.7771   0.19142   0.18668  -0.0839  0.1271  1.0000  -1.4646   0.0000   0.0000   0.0000   0.3446
  16.500   0.7783   0.19789   0.19316  -0.0870  0.1191  1.0000  -1.4180   0.0000   0.0000   0.0000   0.3477
  17.000   0.7810   0.20455   0.19984  -0.0900  0.1117  1.0000  -1.3725   0.0000   0.0000   0.0000   0.3506
  17.500   0.7858   0.21138   0.20669  -0.0927  0.1040  1.0000  -1.3475   0.0000   0.0000   0.0000   0.3528
  18.000   0.7914   0.21823   0.21358  -0.0954  0.0962  1.0000  -1.3524   0.0000   0.0000   0.0000   0.3547
  18.500   0.7972   0.22532   0.22070  -0.0981  0.0904  1.0000  -1.3503   0.0000   0.0000   0.0000   0.3566
  19.000   0.8081   0.23314   0.22856  -0.1000  0.0850  1.0000  -1.3887   0.0000   0.0000   0.0000   0.3565
  19.500   0.8118   0.23973   0.23518  -0.1032  0.0792  1.0000  -1.3613   0.0000   0.0000   0.0000   0.3593
  20.000   0.8153   0.24692   0.24241  -0.1067  0.0752  1.0000  -1.3163   0.0000   0.0000   0.0000   0.3622


