xflr5 v6.61

 Calculated polar for: NACA4412_7_50

 1 1 Reynolds number fixed          Mach number fixed         

 xtrf =   1.000 (top)        1.000 (bottom)
 Mach =   0.200     Re =     0.090 e 6     Ncrit =   7.000

  alpha     CL        CD       CDp       Cm    Top Xtr Bot Xtr   Cpmin    Chinge    XCp    
 ------- -------- --------- --------- -------- ------- ------- -------- --------- ---------
 -16.500  -0.5293   0.20296   0.19692   0.0036  1.0000  0.0327  -1.4372   0.0000   0.0000   0.0000   0.2480
 -16.000  -0.5133   0.19674   0.19072   0.0003  1.0000  0.0347  -1.4217   0.0000   0.0000   0.0000   0.2421
 -15.500  -0.5000   0.19156   0.18556  -0.0039  1.0000  0.0356  -1.4680   0.0000   0.0000   0.0000   0.2341
 -15.000  -0.4827   0.18385   0.17787  -0.0058  1.0000  0.0369  -1.4198   0.0000   0.0000   0.0000   0.2300
 -14.500  -0.4675   0.17745   0.17147  -0.0085  1.0000  0.0389  -1.4247   0.0000   0.0000   0.0000   0.2241
 -14.000  -0.4555   0.17186   0.16592  -0.0121  1.0000  0.0406  -1.4977   0.0000   0.0000   0.0000   0.2160
 -13.500  -0.4407   0.16473   0.15882  -0.0141  1.0000  0.0417  -1.4877   0.0000   0.0000   0.0000   0.2106
 -13.000  -0.4267   0.15825   0.15236  -0.0163  1.0000  0.0441  -1.4759   0.0000   0.0000   0.0000   0.2047
 -12.500  -0.4185   0.15300   0.14715  -0.0199  1.0000  0.0461  -1.5606   0.0000   0.0000   0.0000   0.1957
 -12.000  -0.4027   0.14555   0.13973  -0.0209  1.0000  0.0488  -1.4970   0.0000   0.0000   0.0000   0.1915
 -11.500  -0.3959   0.14030   0.13455  -0.0241  1.0000  0.0518  -1.5664   0.0000   0.0000   0.0000   0.1826
 -11.000  -0.3817   0.13307   0.12736  -0.0251  1.0000  0.0539  -1.5174   0.0000   0.0000   0.0000   0.1781
 -10.500  -0.3732   0.12727   0.12162  -0.0272  1.0000  0.0572  -1.5366   0.0000   0.0000   0.0000   0.1710
 -10.000  -0.3659   0.12114   0.11557  -0.0292  1.0000  0.0589  -1.5603   0.0000   0.0000   0.0000   0.1644
  -8.500  -0.3449   0.10369   0.09839  -0.0319  1.0000  0.0684  -1.5619   0.0000   0.0000   0.0000   0.1528
  -8.000  -0.3582   0.10006   0.09496  -0.0337  1.0000  0.0710  -1.7011   0.0000   0.0000   0.0000   0.1517
  -7.500  -0.3504   0.09409   0.08909  -0.0310  1.0000  0.0764  -1.6381   0.0000   0.0000   0.0000   0.1576
  -7.000  -0.3773   0.09127   0.08653  -0.0317  1.0000  0.0781  -1.7973   0.0000   0.0000   0.0000   0.1630
  -6.500  -0.3735   0.08573   0.08108  -0.0275  1.0000  0.0838  -1.7212   0.0000   0.0000   0.0000   0.1737
  -6.000  -0.3788   0.08056   0.07604  -0.0281  1.0000  0.0869  -1.7714   0.0000   0.0000   0.0000   0.1734
  -5.500  -0.3732   0.07474   0.07022  -0.0350  1.0000  0.0931  -1.8853   0.0000   0.0000   0.0000   0.1540
  -5.000  -0.3640   0.06914   0.06469  -0.0316  1.0000  0.0984  -1.7912   0.0000   0.0000   0.0000   0.1612
  -4.500  -0.3421   0.06260   0.05808  -0.0356  1.0000  0.1061  -1.7830   0.0000   0.0000   0.0000   0.1441
  -3.500  -0.1478   0.03354   0.02679  -0.0714  0.9814  0.0563  -2.3157   0.0000   0.0000   0.0000  -0.2383
  -3.000  -0.0616   0.02687   0.01876  -0.0786  0.9712  0.0615  -2.2243   0.0000   0.0000   0.0000  -1.0377
  -2.500   0.0194   0.02313   0.01403  -0.0833  0.9588  0.0729  -1.9623   0.0000   0.0000   0.0000   4.5872
  -2.000   0.0999   0.02094   0.01155  -0.0877  0.9461  0.0971  -1.6454   0.0000   0.0000   0.0000   1.1341
  -1.500   0.1729   0.01939   0.01007  -0.0908  0.9298  0.1461  -1.3223   0.0000   0.0000   0.0000   0.7775
  -1.000   0.2505   0.01798   0.00917  -0.0949  0.9152  0.2861  -0.9883   0.0000   0.0000   0.0000   0.6297
  -0.500   0.3336   0.01567   0.00844  -0.0991  0.9024  1.0000  -0.6662   0.0000   0.0000   0.0000   0.5471
   0.000   0.4032   0.01565   0.00797  -0.1010  0.8812  1.0000  -0.5733   0.0000   0.0000   0.0000   0.5001
   0.500   0.4716   0.01558   0.00761  -0.1026  0.8597  1.0000  -0.6193   0.0000   0.0000   0.0000   0.4666
   1.000   0.5401   0.01543   0.00727  -0.1039  0.8385  1.0000  -0.6684   0.0000   0.0000   0.0000   0.4412
   1.500   0.6041   0.01535   0.00707  -0.1044  0.8148  1.0000  -0.7175   0.0000   0.0000   0.0000   0.4211
   2.000   0.6637   0.01540   0.00705  -0.1041  0.7885  1.0000  -0.7674   0.0000   0.0000   0.0000   0.4046
   2.500   0.7217   0.01555   0.00718  -0.1034  0.7615  1.0000  -0.8202   0.0000   0.0000   0.0000   0.3908
   3.000   0.7781   0.01583   0.00746  -0.1026  0.7341  1.0000  -0.8848   0.0000   0.0000   0.0000   0.3789
   3.500   0.8331   0.01623   0.00794  -0.1016  0.7069  1.0000  -1.1179   0.0000   0.0000   0.0000   0.3685
   4.000   0.8873   0.01673   0.00854  -0.1004  0.6801  1.0000  -1.4036   0.0000   0.0000   0.0000   0.3593
   4.500   0.9408   0.01730   0.00930  -0.0991  0.6534  1.0000  -1.7328   0.0000   0.0000   0.0000   0.3510
   5.000   0.9933   0.01791   0.01016  -0.0975  0.6251  1.0000  -2.1339   0.0000   0.0000   0.0000   0.3433
   5.500   1.0375   0.01789   0.01016  -0.0931  0.5642  1.0000  -2.5562   0.0000   0.0000   0.0000   0.3343
   6.000   1.0748   0.01821   0.01044  -0.0878  0.4834  1.0000  -2.9963   0.0000   0.0000   0.0000   0.3257
   6.500   1.0955   0.01969   0.01131  -0.0806  0.2958  1.0000  -3.3550   0.0000   0.0000   0.0000   0.3169
   7.000   1.0921   0.02515   0.01508  -0.0723  0.0891  1.0000  -3.5163   0.0000   0.0000   0.0000   0.3090
   7.500   1.1083   0.02860   0.01853  -0.0663  0.0661  1.0000  -3.7653   0.0000   0.0000   0.0000   0.3020
   8.000   1.1311   0.03206   0.02204  -0.0611  0.0546  1.0000  -4.0285   0.0000   0.0000   0.0000   0.2956
   8.500   1.1746   0.03626   0.02626  -0.0589  0.0452  1.0000  -4.4200   0.0000   0.0000   0.0000   0.2912
   9.000   1.2268   0.04167   0.03212  -0.0577  0.0394  1.0000  -4.8031   0.0000   0.0000   0.0000   0.2874
   9.500   1.2676   0.04791   0.03880  -0.0558  0.0357  1.0000  -5.1448   0.0000   0.0000   0.0000   0.2838
  10.000   1.2769   0.05489   0.04680  -0.0503  0.0351  1.0000  -5.1901   0.0000   0.0000   0.0000   0.2786
  10.500   1.2649   0.06180   0.05451  -0.0438  0.0350  1.0000  -5.1701   0.0000   0.0000   0.0000   0.2733
  11.000   1.2360   0.06873   0.06207  -0.0379  0.0349  1.0000  -5.1002   0.0000   0.0000   0.0000   0.2687
  11.500   1.2008   0.07691   0.07077  -0.0353  0.0349  1.0000  -4.9991   0.0000   0.0000   0.0000   0.2668
  12.000   1.1637   0.08680   0.08108  -0.0365  0.0351  1.0000  -4.8720   0.0000   0.0000   0.0000   0.2681
  12.500   1.1285   0.09840   0.09300  -0.0409  0.0355  1.0000  -4.7273   0.0000   0.0000   0.0000   0.2723


