xflr5 v6.61

 Calculated polar for: NACA4412_8_00

 1 1 Reynolds number fixed          Mach number fixed         

 xtrf =   1.000 (top)        1.000 (bottom)
 Mach =   0.200     Re =     0.050 e 6     Ncrit =   7.000

  alpha     CL        CD       CDp       Cm    Top Xtr Bot Xtr   Cpmin    Chinge    XCp    
 ------- -------- --------- --------- -------- ------- ------- -------- --------- ---------
 -23.500  -0.7613   0.28930   0.28121   0.0547  1.0000  0.0368  -1.5629   0.0000   0.0000   0.0000   0.3057
 -23.000  -0.7441   0.28334   0.27522   0.0504  1.0000  0.0384  -1.5295   0.0000   0.0000   0.0000   0.3023
 -22.500  -0.7269   0.27782   0.26969   0.0460  1.0000  0.0399  -1.5128   0.0000   0.0000   0.0000   0.2984
 -22.000  -0.7104   0.27339   0.26526   0.0411  1.0000  0.0407  -1.5340   0.0000   0.0000   0.0000   0.2935
 -21.500  -0.6924   0.26583   0.25770   0.0376  1.0000  0.0421  -1.5000   0.0000   0.0000   0.0000   0.2905
 -21.000  -0.6749   0.25984   0.25170   0.0336  1.0000  0.0445  -1.4904   0.0000   0.0000   0.0000   0.2866
 -20.500  -0.6585   0.25530   0.24717   0.0289  1.0000  0.0461  -1.5244   0.0000   0.0000   0.0000   0.2812
 -20.000  -0.6403   0.24789   0.23976   0.0256  1.0000  0.0476  -1.4902   0.0000   0.0000   0.0000   0.2777
 -19.500  -0.6227   0.24174   0.23361   0.0219  1.0000  0.0500  -1.4733   0.0000   0.0000   0.0000   0.2733
 -19.000  -0.6067   0.23684   0.22872   0.0175  1.0000  0.0517  -1.4932   0.0000   0.0000   0.0000   0.2675
 -18.500  -0.5889   0.22975   0.22164   0.0143  1.0000  0.0532  -1.4629   0.0000   0.0000   0.0000   0.2632
 -18.000  -0.5714   0.22342   0.21531   0.0109  1.0000  0.0559  -1.4332   0.0000   0.0000   0.0000   0.2585
 -17.500  -0.5568   0.21874   0.21066   0.0067  1.0000  0.0579  -1.4510   0.0000   0.0000   0.0000   0.2518
 -17.000  -0.5385   0.21112   0.20306   0.0041  1.0000  0.0600  -1.3968   0.0000   0.0000   0.0000   0.2476
 -16.500  -0.5231   0.20554   0.19749   0.0006  1.0000  0.0637  -1.4081   0.0000   0.0000   0.0000   0.2415
 -16.000  -0.5068   0.19888   0.19086  -0.0023  1.0000  0.0662  -1.4105   0.0000   0.0000   0.0000   0.2361
 -15.500  -0.4921   0.19315   0.18516  -0.0054  1.0000  0.0702  -1.4236   0.0000   0.0000   0.0000   0.2299
 -15.000  -0.4773   0.18672   0.17877  -0.0083  1.0000  0.0724  -1.4337   0.0000   0.0000   0.0000   0.2239
 -14.500  -0.4622   0.18045   0.17251  -0.0108  1.0000  0.0766  -1.4295   0.0000   0.0000   0.0000   0.2180
 -14.000  -0.4505   0.17472   0.16684  -0.0138  1.0000  0.0789  -1.4560   0.0000   0.0000   0.0000   0.2110
 -13.500  -0.4352   0.16801   0.16015  -0.0158  1.0000  0.0836  -1.4349   0.0000   0.0000   0.0000   0.2055
 -13.000  -0.4247   0.16214   0.15435  -0.0185  1.0000  0.0864  -1.4546   0.0000   0.0000   0.0000   0.1986
 -12.500  -0.4128   0.15616   0.14839  -0.0206  1.0000  0.0921  -1.4466   0.0000   0.0000   0.0000   0.1925
 -12.000  -0.3990   0.14930   0.14159  -0.0221  1.0000  0.0973  -1.4194   0.0000   0.0000   0.0000   0.1871
 -11.500  -0.3912   0.14365   0.13603  -0.0244  1.0000  0.1022  -1.4315   0.0000   0.0000   0.0000   0.1805
 -11.000  -0.3844   0.13841   0.13086  -0.0265  1.0000  0.1085  -1.4371   0.0000   0.0000   0.0000   0.1743
 -10.500  -0.3700   0.13123   0.12374  -0.0272  1.0000  0.1141  -1.4237   0.0000   0.0000   0.0000   0.1698
 -10.000  -0.3642   0.12557   0.11817  -0.0288  1.0000  0.1192  -1.4563   0.0000   0.0000   0.0000   0.1645
  -9.500  -0.3644   0.12119   0.11393  -0.0308  1.0000  0.1258  -1.5067   0.0000   0.0000   0.0000   0.1598
  -9.000  -0.3542   0.11472   0.10756  -0.0307  1.0000  0.1340  -1.4944   0.0000   0.0000   0.0000   0.1576
  -8.500  -0.3509   0.10933   0.10232  -0.0308  1.0000  0.1430  -1.5024   0.0000   0.0000   0.0000   0.1571
  -8.000  -0.3513   0.10431   0.09748  -0.0301  1.0000  0.1524  -1.5122   0.0000   0.0000   0.0000   0.1595
  -7.500  -0.3536   0.09938   0.09273  -0.0285  1.0000  0.1614  -1.5154   0.0000   0.0000   0.0000   0.1652
  -7.000  -0.3609   0.09479   0.08834  -0.0257  1.0000  0.1691  -1.5214   0.0000   0.0000   0.0000   0.1750
  -6.500  -0.3698   0.09029   0.08405  -0.0239  1.0000  0.1777  -1.5363   0.0000   0.0000   0.0000   0.1822
  -6.000  -0.3764   0.08560   0.07954  -0.0226  1.0000  0.1880  -1.5446   0.0000   0.0000   0.0000   0.1873
  -5.500  -0.3797   0.08074   0.07482  -0.0220  1.0000  0.2013  -1.5453   0.0000   0.0000   0.0000   0.1896
  -5.000  -0.3776   0.07544   0.06963  -0.0216  1.0000  0.2191  -1.5257   0.0000   0.0000   0.0000   0.1907
  -4.000  -0.2947   0.05445   0.04776  -0.0467  1.0000  0.1163  -1.9209   0.0000   0.0000   0.0000   0.0889
  -3.500  -0.2385   0.04475   0.03724  -0.0541  1.0000  0.0991  -2.0369   0.0000   0.0000   0.0000   0.0200
  -3.000  -0.1788   0.03760   0.02899  -0.0589  1.0000  0.0999  -2.0295   0.0000   0.0000   0.0000  -0.0837
  -2.500  -0.1214   0.03289   0.02328  -0.0612  1.0000  0.1082  -1.9216   0.0000   0.0000   0.0000  -0.2593
  -2.000  -0.0694   0.02993   0.01965  -0.0617  1.0000  0.1223  -1.7774   0.0000   0.0000   0.0000  -0.6475
  -1.500   0.0090   0.02775   0.01685  -0.0666  0.9890  0.1550  -1.5389   0.0000   0.0000   0.0000   7.7416
  -1.000   0.0990   0.02640   0.01534  -0.0732  0.9711  0.2334  -1.2530   0.0000   0.0000   0.0000   0.9933
   0.000   0.2613   0.02390   0.01416  -0.0830  0.9280  1.0000  -0.6922   0.0000   0.0000   0.0000   0.5674
   0.500   0.3408   0.02476   0.01445  -0.0880  0.9036  1.0000  -0.5446   0.0000   0.0000   0.0000   0.5073
   1.000   0.4161   0.02551   0.01485  -0.0919  0.8790  1.0000  -0.5928   0.0000   0.0000   0.0000   0.4696
   1.500   0.4868   0.02619   0.01533  -0.0948  0.8542  1.0000  -0.6414   0.0000   0.0000   0.0000   0.4430
   2.000   0.5533   0.02687   0.01591  -0.0967  0.8295  1.0000  -0.6910   0.0000   0.0000   0.0000   0.4227
   2.500   0.6156   0.02760   0.01664  -0.0978  0.8050  1.0000  -0.7419   0.0000   0.0000   0.0000   0.4063
   3.000   0.6767   0.02832   0.01744  -0.0984  0.7815  1.0000  -0.7974   0.0000   0.0000   0.0000   0.3924
   3.500   0.7425   0.02882   0.01807  -0.0993  0.7602  1.0000  -0.8657   0.0000   0.0000   0.0000   0.3803
   4.000   0.7940   0.02986   0.01933  -0.0983  0.7353  1.0000  -1.0349   0.0000   0.0000   0.0000   0.3699
   4.500   0.8493   0.03075   0.02048  -0.0975  0.7118  1.0000  -1.2794   0.0000   0.0000   0.0000   0.3605
   5.000   0.9106   0.03126   0.02138  -0.0970  0.6890  1.0000  -1.5865   0.0000   0.0000   0.0000   0.3517
   5.500   0.9607   0.03229   0.02285  -0.0950  0.6620  1.0000  -1.8943   0.0000   0.0000   0.0000   0.3436
   6.000   1.0177   0.03265   0.02372  -0.0930  0.6326  1.0000  -2.3011   0.0000   0.0000   0.0000   0.3355
   6.500   1.0910   0.02919   0.02066  -0.0876  0.5712  1.0000  -2.8601   0.0000   0.0000   0.0000   0.3238
   7.000   1.1230   0.02768   0.01930  -0.0785  0.4802  1.0000  -3.2627   0.0000   0.0000   0.0000   0.3126
   7.500   1.1211   0.02862   0.01976  -0.0667  0.3024  1.0000  -3.4854   0.0000   0.0000   0.0000   0.3015
   8.000   1.0979   0.03440   0.02390  -0.0569  0.1575  1.0000  -3.5362   0.0000   0.0000   0.0000   0.2932
   8.500   1.1007   0.03952   0.02859  -0.0509  0.1178  1.0000  -3.6837   0.0000   0.0000   0.0000   0.2870
   9.000   1.1434   0.04397   0.03303  -0.0479  0.0911  1.0000  -3.9694   0.0000   0.0000   0.0000   0.2820
   9.500   1.2211   0.05018   0.03967  -0.0487  0.0738  1.0000  -4.3454   0.0000   0.0000   0.0000   0.2795
  10.000   1.2571   0.05750   0.04777  -0.0463  0.0679  1.0000  -4.5629   0.0000   0.0000   0.0000   0.2758
  10.500   1.2654   0.06465   0.05555  -0.0423  0.0636  1.0000  -4.6992   0.0000   0.0000   0.0000   0.2718
  11.000   1.2421   0.07195   0.06359  -0.0366  0.0630  1.0000  -4.6547   0.0000   0.0000   0.0000   0.2673
  11.500   1.2090   0.08025   0.07246  -0.0335  0.0632  1.0000  -4.5668   0.0000   0.0000   0.0000   0.2649
  12.000   1.1704   0.09012   0.08280  -0.0339  0.0637  1.0000  -4.4382   0.0000   0.0000   0.0000   0.2655
  12.500   1.1324   0.10183   0.09484  -0.0378  0.0644  1.0000  -4.2807   0.0000   0.0000   0.0000   0.2693
  13.000   1.0512   0.12336   0.11668  -0.0535  0.0691  1.0000  -3.6738   0.0000   0.0000   0.0000   0.2865
  13.500   1.0276   0.13988   0.13321  -0.0629  0.0709  1.0000  -3.3994   0.0000   0.0000   0.0000   0.2965


