xflr5 v6.61

 Calculated polar for: NACA4412_6_80

 1 1 Reynolds number fixed          Mach number fixed         

 xtrf =   1.000 (top)        1.000 (bottom)
 Mach =   0.200     Re =     0.080 e 6     Ncrit =   7.000

  alpha     CL        CD       CDp       Cm    Top Xtr Bot Xtr   Cpmin    Chinge    XCp    
 ------- -------- --------- --------- -------- ------- ------- -------- --------- ---------
 -10.000  -0.3749   0.12291   0.11700  -0.0255  1.0000  0.0611  -1.5287   0.0000   0.0000   0.0000   0.1774
  -9.500  -0.3722   0.11817   0.11237  -0.0285  1.0000  0.0642  -1.6088   0.0000   0.0000   0.0000   0.1690
  -9.000  -0.3588   0.11112   0.10539  -0.0286  1.0000  0.0673  -1.5561   0.0000   0.0000   0.0000   0.1662
  -8.500  -0.3599   0.10670   0.10110  -0.0310  1.0000  0.0709  -1.6336   0.0000   0.0000   0.0000   0.1602
  -8.000  -0.3501   0.10021   0.09472  -0.0301  1.0000  0.0742  -1.5805   0.0000   0.0000   0.0000   0.1605
  -7.500  -0.3615   0.09665   0.09137  -0.0304  1.0000  0.0777  -1.6625   0.0000   0.0000   0.0000   0.1630
  -7.000  -0.3612   0.09116   0.08601  -0.0278  1.0000  0.0808  -1.6238   0.0000   0.0000   0.0000   0.1704
  -6.500  -0.3705   0.08713   0.08217  -0.0304  1.0000  0.0851  -1.7131   0.0000   0.0000   0.0000   0.1658
  -6.000  -0.3674   0.08158   0.07673  -0.0283  1.0000  0.0912  -1.6771   0.0000   0.0000   0.0000   0.1709
  -5.500  -0.3631   0.07615   0.07140  -0.0292  1.0000  0.0981  -1.6983   0.0000   0.0000   0.0000   0.1678
  -5.000  -0.3510   0.07026   0.06554  -0.0319  1.0000  0.1063  -1.7210   0.0000   0.0000   0.0000   0.1575
  -4.500  -0.3224   0.06344   0.05858  -0.0399  1.0000  0.1177  -1.7828   0.0000   0.0000   0.0000   0.1247
  -4.000  -0.2964   0.05712   0.05219  -0.0408  1.0000  0.1283  -1.7223   0.0000   0.0000   0.0000   0.1107
  -3.000  -0.1254   0.03303   0.02596  -0.0663  0.9936  0.0616  -2.1804   0.0000   0.0000   0.0000  -0.2830
  -2.500  -0.0327   0.02643   0.01785  -0.0743  0.9842  0.0663  -2.0727   0.0000   0.0000   0.0000  -2.0350
  -2.000   0.0544   0.02295   0.01347  -0.0800  0.9727  0.0806  -1.7927   0.0000   0.0000   0.0000   1.7305
  -1.500   0.1345   0.02092   0.01122  -0.0846  0.9577  0.1141  -1.4771   0.0000   0.0000   0.0000   0.8817
  -1.000   0.2128   0.01943   0.00999  -0.0888  0.9415  0.2088  -1.1468   0.0000   0.0000   0.0000   0.6686
  -0.500   0.2919   0.01671   0.00921  -0.0928  0.9268  1.0000  -0.8059   0.0000   0.0000   0.0000   0.5681
   0.000   0.3691   0.01688   0.00878  -0.0966  0.9060  1.0000  -0.5298   0.0000   0.0000   0.0000   0.5114
   0.500   0.4449   0.01694   0.00851  -0.1000  0.8852  1.0000  -0.5780   0.0000   0.0000   0.0000   0.4739
   1.000   0.5190   0.01688   0.00825  -0.1026  0.8644  1.0000  -0.6283   0.0000   0.0000   0.0000   0.4466
   1.500   0.5874   0.01682   0.00808  -0.1040  0.8412  1.0000  -0.6787   0.0000   0.0000   0.0000   0.4255
   2.000   0.6505   0.01683   0.00807  -0.1044  0.8156  1.0000  -0.7292   0.0000   0.0000   0.0000   0.4085
   2.500   0.7114   0.01691   0.00820  -0.1042  0.7891  1.0000  -0.7826   0.0000   0.0000   0.0000   0.3941
   3.000   0.7701   0.01710   0.00846  -0.1036  0.7618  1.0000  -0.9091   0.0000   0.0000   0.0000   0.3818
   3.500   0.8269   0.01743   0.00894  -0.1028  0.7341  1.0000  -1.1867   0.0000   0.0000   0.0000   0.3711
   4.000   0.8822   0.01788   0.00958  -0.1016  0.7061  1.0000  -1.5022   0.0000   0.0000   0.0000   0.3616
   4.500   0.9364   0.01843   0.01043  -0.1003  0.6777  1.0000  -1.9232   0.0000   0.0000   0.0000   0.3530
   5.000   0.9907   0.01882   0.01113  -0.0983  0.6445  1.0000  -2.4288   0.0000   0.0000   0.0000   0.3446
   5.500   1.0269   0.01830   0.01045  -0.0910  0.5451  1.0000  -2.9145   0.0000   0.0000   0.0000   0.3334
   6.000   1.0532   0.01919   0.01102  -0.0836  0.3825  1.0000  -3.3115   0.0000   0.0000   0.0000   0.3236
   6.500   1.0492   0.02509   0.01466  -0.0750  0.0899  1.0000  -3.4432   0.0000   0.0000   0.0000   0.3151
   7.000   1.0694   0.02875   0.01830  -0.0694  0.0653  1.0000  -3.6809   0.0000   0.0000   0.0000   0.3080
   7.500   1.1015   0.03254   0.02210  -0.0651  0.0530  1.0000  -4.0134   0.0000   0.0000   0.0000   0.3016
   8.000   1.1568   0.03760   0.02740  -0.0638  0.0444  1.0000  -4.3911   0.0000   0.0000   0.0000   0.2971
   8.500   1.2040   0.04364   0.03404  -0.0617  0.0391  1.0000  -4.6771   0.0000   0.0000   0.0000   0.2927
   9.000   1.2320   0.05085   0.04227  -0.0576  0.0383  1.0000  -4.7624   0.0000   0.0000   0.0000   0.2876
   9.500   1.2382   0.05815   0.05046  -0.0522  0.0375  1.0000  -4.7880   0.0000   0.0000   0.0000   0.2825
  10.000   1.2404   0.06545   0.05815  -0.0482  0.0356  1.0000  -4.9293   0.0000   0.0000   0.0000   0.2786
  10.500   1.2133   0.07243   0.06575  -0.0421  0.0356  1.0000  -4.8528   0.0000   0.0000   0.0000   0.2740
  11.500   1.1111   0.09256   0.08705  -0.0425  0.0385  1.0000  -4.3152   0.0000   0.0000   0.0000   0.2764
  12.000   1.0737   0.10610   0.10083  -0.0498  0.0398  1.0000  -4.0992   0.0000   0.0000   0.0000   0.2840
  12.500   1.0503   0.11988   0.11471  -0.0574  0.0407  1.0000  -3.9278   0.0000   0.0000   0.0000   0.2918
  13.000   1.0058   0.14704   0.14187  -0.0763  0.0505  1.0000  -3.0690   0.0000   0.0000   0.0000   0.3131


