xflr5 v6.61

 Calculated polar for: NACA4412_7_20

 1 1 Reynolds number fixed          Mach number fixed         

 xtrf =   1.000 (top)        1.000 (bottom)
 Mach =   0.200     Re =     0.070 e 6     Ncrit =   9.000

  alpha     CL        CD       CDp       Cm    Top Xtr Bot Xtr   Cpmin    Chinge    XCp    
 ------- -------- --------- --------- -------- ------- ------- -------- --------- ---------
 -17.500  -0.5720   0.21780   0.21100   0.0122  1.0000  0.0429  -1.4412   0.0000   0.0000   0.0000   0.2627
 -17.000  -0.5556   0.21198   0.20519   0.0085  1.0000  0.0455  -1.4402   0.0000   0.0000   0.0000   0.2570
 -16.500  -0.5405   0.20632   0.19956   0.0047  1.0000  0.0466  -1.4579   0.0000   0.0000   0.0000   0.2507
 -16.000  -0.5226   0.19891   0.19215   0.0023  1.0000  0.0491  -1.3950   0.0000   0.0000   0.0000   0.2466
 -15.500  -0.5081   0.19337   0.18664  -0.0013  1.0000  0.0515  -1.4011   0.0000   0.0000   0.0000   0.2399
 -15.000  -0.4928   0.18661   0.17990  -0.0042  1.0000  0.0530  -1.3765   0.0000   0.0000   0.0000   0.2343
 -14.500  -0.4769   0.17999   0.17330  -0.0067  1.0000  0.0561  -1.3685   0.0000   0.0000   0.0000   0.2290
 -14.000  -0.4678   0.17579   0.16914  -0.0107  1.0000  0.0580  -1.4527   0.0000   0.0000   0.0000   0.2204
 -13.500  -0.4490   0.16724   0.16060  -0.0120  1.0000  0.0610  -1.4019   0.0000   0.0000   0.0000   0.2168
 -13.000  -0.4400   0.16241   0.15583  -0.0154  1.0000  0.0642  -1.4632   0.0000   0.0000   0.0000   0.2087
 -12.500  -0.4235   0.15467   0.14810  -0.0167  1.0000  0.0680  -1.4254   0.0000   0.0000   0.0000   0.2043
 -12.000  -0.4200   0.15087   0.14438  -0.0206  1.0000  0.0711  -1.5144   0.0000   0.0000   0.0000   0.1951
 -11.500  -0.4007   0.14228   0.13581  -0.0211  1.0000  0.0758  -1.4442   0.0000   0.0000   0.0000   0.1917
 -11.000  -0.3957   0.13728   0.13090  -0.0241  1.0000  0.0786  -1.5043   0.0000   0.0000   0.0000   0.1835
 -10.500  -0.3812   0.13022   0.12387  -0.0250  1.0000  0.0839  -1.4629   0.0000   0.0000   0.0000   0.1791
 -10.000  -0.3722   0.12403   0.11776  -0.0266  1.0000  0.0874  -1.4674   0.0000   0.0000   0.0000   0.1733
  -9.750  -0.3671   0.12104   0.11481  -0.0272  1.0000  0.0905  -1.4570   0.0000   0.0000   0.0000   0.1709
  -9.500  -0.3695   0.11940   0.11323  -0.0290  1.0000  0.0926  -1.5062   0.0000   0.0000   0.0000   0.1667
  -9.250  -0.3617   0.11543   0.10931  -0.0289  1.0000  0.0945  -1.4755   0.0000   0.0000   0.0000   0.1654
  -9.000  -0.3562   0.11237   0.10629  -0.0290  1.0000  0.0980  -1.4528   0.0000   0.0000   0.0000   0.1640
  -8.750  -0.3610   0.11092   0.10493  -0.0306  1.0000  0.1004  -1.5046   0.0000   0.0000   0.0000   0.1609
  -8.500  -0.3516   0.10685   0.10089  -0.0297  1.0000  0.1037  -1.4518   0.0000   0.0000   0.0000   0.1611
  -8.250  -0.3528   0.10477   0.09889  -0.0302  1.0000  0.1077  -1.4772   0.0000   0.0000   0.0000   0.1603
  -8.000  -0.3654   0.10412   0.09838  -0.0313  1.0000  0.1089  -1.5532   0.0000   0.0000   0.0000   0.1607
  -7.750  -0.3501   0.09937   0.09363  -0.0294  1.0000  0.1147  -1.4876   0.0000   0.0000   0.0000   0.1622
  -7.500  -0.3632   0.09853   0.09294  -0.0294  1.0000  0.1169  -1.5475   0.0000   0.0000   0.0000   0.1656
  -7.250  -0.3564   0.09486   0.08930  -0.0279  1.0000  0.1204  -1.5197   0.0000   0.0000   0.0000   0.1685
  -7.000  -0.3632   0.09313   0.08768  -0.0267  1.0000  0.1240  -1.5393   0.0000   0.0000   0.0000   0.1736
  -6.750  -0.3773   0.09230   0.08699  -0.0291  1.0000  0.1259  -1.6227   0.0000   0.0000   0.0000   0.1702
  -6.500  -0.3678   0.08825   0.08298  -0.0253  1.0000  0.1301  -1.5601   0.0000   0.0000   0.0000   0.1786
  -6.250  -0.3752   0.08668   0.08151  -0.0273  1.0000  0.1344  -1.6131   0.0000   0.0000   0.0000   0.1750
  -6.000  -0.3730   0.08352   0.07841  -0.0254  1.0000  0.1375  -1.5956   0.0000   0.0000   0.0000   0.1796
  -5.750  -0.3742   0.08141   0.07635  -0.0271  1.0000  0.1433  -1.6239   0.0000   0.0000   0.0000   0.1755
  -5.500  -0.3718   0.07834   0.07334  -0.0257  1.0000  0.1470  -1.6085   0.0000   0.0000   0.0000   0.1790
  -5.250  -0.3684   0.07590   0.07090  -0.0301  1.0000  0.1540  -1.6553   0.0000   0.0000   0.0000   0.1666
  -5.000  -0.3642   0.07289   0.06795  -0.0265  1.0000  0.1596  -1.6032   0.0000   0.0000   0.0000   0.1756
  -4.750  -0.3578   0.06994   0.06501  -0.0275  1.0000  0.1670  -1.5993   0.0000   0.0000   0.0000   0.1714
  -4.500  -0.3496   0.06707   0.06214  -0.0284  1.0000  0.1771  -1.5837   0.0000   0.0000   0.0000   0.1671
  -4.250  -0.3398   0.06425   0.05931  -0.0292  1.0000  0.1896  -1.5587   0.0000   0.0000   0.0000   0.1626
  -2.500  -0.1186   0.03404   0.02656  -0.0613  1.0000  0.1158  -1.7861   0.0000   0.0000   0.0000  -0.2707
  -2.250  -0.0853   0.03102   0.02296  -0.0630  1.0000  0.1122  -1.7778   0.0000   0.0000   0.0000  -0.4939
  -2.000  -0.0547   0.02889   0.02028  -0.0639  1.0000  0.1148  -1.7337   0.0000   0.0000   0.0000  -0.9270
  -1.750  -0.0249   0.02709   0.01792  -0.0644  1.0000  0.1184  -1.6772   0.0000   0.0000   0.0000  -2.3572
  -1.500   0.0010   0.02598   0.01655  -0.0645  1.0000  0.1275  -1.6051   0.0000   0.0000   0.0000  66.1999
  -1.250   0.0256   0.02516   0.01558  -0.0645  1.0000  0.1398  -1.5209   0.0000   0.0000   0.0000   2.7812
  -1.000   0.0695   0.02431   0.01452  -0.0677  0.9939  0.1650  -1.3887   0.0000   0.0000   0.0000   1.2280
  -0.750   0.1171   0.02359   0.01390  -0.0716  0.9851  0.2112  -1.2315   0.0000   0.0000   0.0000   0.8629
  -0.500   0.1656   0.02280   0.01339  -0.0755  0.9762  0.3080  -1.0799   0.0000   0.0000   0.0000   0.7072
  -0.250   0.2087   0.02040   0.01278  -0.0778  0.9676  1.0000  -0.9327   0.0000   0.0000   0.0000   0.6234
   0.000   0.2572   0.02100   0.01286  -0.0821  0.9557  1.0000  -0.7547   0.0000   0.0000   0.0000   0.5692
   0.250   0.2994   0.02151   0.01305  -0.0853  0.9420  1.0000  -0.5982   0.0000   0.0000   0.0000   0.5346
   0.500   0.3417   0.02197   0.01327  -0.0885  0.9286  1.0000  -0.5182   0.0000   0.0000   0.0000   0.5082
   0.750   0.3846   0.02238   0.01350  -0.0916  0.9158  1.0000  -0.5444   0.0000   0.0000   0.0000   0.4872
   1.000   0.4270   0.02273   0.01371  -0.0945  0.9032  1.0000  -0.5711   0.0000   0.0000   0.0000   0.4701
   1.250   0.4685   0.02302   0.01391  -0.0971  0.8908  1.0000  -0.5982   0.0000   0.0000   0.0000   0.4559
   1.500   0.5088   0.02327   0.01410  -0.0994  0.8784  1.0000  -0.6256   0.0000   0.0000   0.0000   0.4438
   1.750   0.5478   0.02348   0.01428  -0.1014  0.8660  1.0000  -0.6534   0.0000   0.0000   0.0000   0.4332
   2.000   0.5857   0.02367   0.01447  -0.1030  0.8537  1.0000  -0.6816   0.0000   0.0000   0.0000   0.4239
   2.250   0.6217   0.02386   0.01467  -0.1043  0.8413  1.0000  -0.7098   0.0000   0.0000   0.0000   0.4156
   2.500   0.6555   0.02406   0.01490  -0.1051  0.8288  1.0000  -0.7379   0.0000   0.0000   0.0000   0.4079
   2.750   0.6878   0.02429   0.01519  -0.1056  0.8162  1.0000  -0.7667   0.0000   0.0000   0.0000   0.4009
   3.000   0.7192   0.02453   0.01550  -0.1058  0.8038  1.0000  -0.7966   0.0000   0.0000   0.0000   0.3944
   3.250   0.7498   0.02478   0.01583  -0.1059  0.7914  1.0000  -0.8523   0.0000   0.0000   0.0000   0.3883
   3.500   0.7802   0.02504   0.01618  -0.1059  0.7792  1.0000  -0.9679   0.0000   0.0000   0.0000   0.3826
   3.750   0.8111   0.02526   0.01655  -0.1059  0.7673  1.0000  -1.1047   0.0000   0.0000   0.0000   0.3772
   4.000   0.8448   0.02531   0.01674  -0.1061  0.7564  1.0000  -1.2662   0.0000   0.0000   0.0000   0.3719
   4.250   0.8796   0.02527   0.01685  -0.1062  0.7455  1.0000  -1.4427   0.0000   0.0000   0.0000   0.3669
   4.500   0.9066   0.02561   0.01738  -0.1055  0.7321  1.0000  -1.6143   0.0000   0.0000   0.0000   0.3623
   4.750   0.9340   0.02591   0.01787  -0.1047  0.7186  1.0000  -1.8048   0.0000   0.0000   0.0000   0.3578
   5.000   0.9621   0.02614   0.01831  -0.1039  0.7046  1.0000  -2.0227   0.0000   0.0000   0.0000   0.3534
   5.250   0.9918   0.02619   0.01861  -0.1029  0.6899  1.0000  -2.2555   0.0000   0.0000   0.0000   0.3489
   5.500   1.0246   0.02498   0.01758  -0.1003  0.6633  1.0000  -2.5237   0.0000   0.0000   0.0000   0.3428
   5.750   1.0584   0.02229   0.01481  -0.0953  0.6122  1.0000  -2.8654   0.0000   0.0000   0.0000   0.3346
   6.000   1.0795   0.02153   0.01414  -0.0914  0.5679  1.0000  -3.1202   0.0000   0.0000   0.0000   0.3288
   6.250   1.0925   0.02107   0.01369  -0.0863  0.5055  1.0000  -3.3207   0.0000   0.0000   0.0000   0.3229
   6.500   1.0854   0.02164   0.01354  -0.0783  0.3295  1.0000  -3.3812   0.0000   0.0000   0.0000   0.3156
   6.750   1.0705   0.02550   0.01567  -0.0723  0.1583  1.0000  -3.3665   0.0000   0.0000   0.0000   0.3107
   7.000   1.0734   0.02813   0.01790  -0.0685  0.1246  1.0000  -3.4245   0.0000   0.0000   0.0000   0.3068
   7.250   1.0838   0.03031   0.01994  -0.0656  0.1068  1.0000  -3.5154   0.0000   0.0000   0.0000   0.3031
   7.500   1.1037   0.03259   0.02198  -0.0638  0.0931  1.0000  -3.6463   0.0000   0.0000   0.0000   0.3001
   7.750   1.1386   0.03524   0.02464  -0.0636  0.0833  1.0000  -3.8022   0.0000   0.0000   0.0000   0.2979
   8.000   1.1716   0.03818   0.02768  -0.0635  0.0755  1.0000  -3.9928   0.0000   0.0000   0.0000   0.2960
   8.250   1.2071   0.04187   0.03137  -0.0640  0.0711  1.0000  -4.1832   0.0000   0.0000   0.0000   0.2945
   8.500   1.2282   0.04522   0.03533  -0.0621  0.0697  1.0000  -4.2534   0.0000   0.0000   0.0000   0.2917
   8.750   1.2428   0.04859   0.03927  -0.0599  0.0677  1.0000  -4.3156   0.0000   0.0000   0.0000   0.2891
   9.000   1.2562   0.05219   0.04324  -0.0579  0.0658  1.0000  -4.3930   0.0000   0.0000   0.0000   0.2867
   9.250   1.2607   0.05618   0.04784  -0.0549  0.0666  1.0000  -4.3799   0.0000   0.0000   0.0000   0.2840
   9.500   1.2603   0.06043   0.05263  -0.0519  0.0682  1.0000  -4.3470   0.0000   0.0000   0.0000   0.2813
   9.750   1.2599   0.06487   0.05745  -0.0493  0.0697  1.0000  -4.3315   0.0000   0.0000   0.0000   0.2791
  10.000   1.2631   0.06962   0.06247  -0.0474  0.0715  1.0000  -4.3359   0.0000   0.0000   0.0000   0.2772
  10.250   1.2306   0.07311   0.06654  -0.0429  0.0737  1.0000  -4.1804   0.0000   0.0000   0.0000   0.2744
  10.500   1.2085   0.07712   0.07082  -0.0400  0.0753  1.0000  -4.1018   0.0000   0.0000   0.0000   0.2724
  10.750   1.1946   0.08172   0.07560  -0.0386  0.0770  1.0000  -4.0576   0.0000   0.0000   0.0000   0.2713
  11.000   1.1752   0.08644   0.08053  -0.0380  0.0790  1.0000  -3.9825   0.0000   0.0000   0.0000   0.2711
  11.250   1.1388   0.09190   0.08621  -0.0394  0.0797  1.0000  -3.8411   0.0000   0.0000   0.0000   0.2731
  11.500   1.1035   0.09899   0.09347  -0.0434  0.0806  1.0000  -3.6803   0.0000   0.0000   0.0000   0.2775
  11.750   1.0713   0.10777   0.10234  -0.0494  0.0822  1.0000  -3.4952   0.0000   0.0000   0.0000   0.2841
  12.000   1.0609   0.11538   0.10999  -0.0528  0.0861  1.0000  -3.3926   0.0000   0.0000   0.0000   0.2876
  12.250   1.0283   0.12913   0.12371  -0.0632  0.0938  1.0000  -3.0498   0.0000   0.0000   0.0000   0.2993
  12.500   0.8350   0.12953   0.12443  -0.0549  0.0995  1.0000  -2.3936   0.0000   0.0000   0.0000   0.3047


