xflr5 v6.61

 Calculated polar for: NACA4412_7_70

 1 1 Reynolds number fixed          Mach number fixed         

 xtrf =   1.000 (top)        1.000 (bottom)
 Mach =   0.200     Re =     0.050 e 6     Ncrit =   9.000

  alpha     CL        CD       CDp       Cm    Top Xtr Bot Xtr   Cpmin    Chinge    XCp    
 ------- -------- --------- --------- -------- ------- ------- -------- --------- ---------
 -18.500  -0.5966   0.23083   0.22277   0.0163  1.0000  0.0605  -1.4324   0.0000   0.0000   0.0000   0.2671
 -18.000  -0.5801   0.22525   0.21720   0.0125  1.0000  0.0635  -1.4263   0.0000   0.0000   0.0000   0.2617
 -17.500  -0.5644   0.21947   0.21146   0.0088  1.0000  0.0651  -1.4252   0.0000   0.0000   0.0000   0.2561
 -17.000  -0.5463   0.21241   0.20440   0.0060  1.0000  0.0687  -1.3785   0.0000   0.0000   0.0000   0.2517
 -16.500  -0.5339   0.20854   0.20056   0.0017  1.0000  0.0710  -1.4020   0.0000   0.0000   0.0000   0.2444
 -16.000  -0.5142   0.19998   0.19201  -0.0003  1.0000  0.0749  -1.3524   0.0000   0.0000   0.0000   0.2407
 -15.500  -0.5043   0.19659   0.18866  -0.0045  1.0000  0.0781  -1.4166   0.0000   0.0000   0.0000   0.2328
 -15.000  -0.4841   0.18776   0.17983  -0.0062  1.0000  0.0831  -1.3750   0.0000   0.0000   0.0000   0.2291
 -14.500  -0.4725   0.18253   0.17467  -0.0095  1.0000  0.0861  -1.4121   0.0000   0.0000   0.0000   0.2221
 -14.000  -0.4563   0.17557   0.16773  -0.0116  1.0000  0.0913  -1.3971   0.0000   0.0000   0.0000   0.2170
 -13.500  -0.4436   0.16932   0.16153  -0.0141  1.0000  0.0947  -1.4101   0.0000   0.0000   0.0000   0.2108
 -13.000  -0.4329   0.16395   0.15620  -0.0167  1.0000  0.1001  -1.4261   0.0000   0.0000   0.0000   0.2043
 -12.500  -0.4175   0.15658   0.14886  -0.0183  1.0000  0.1049  -1.4048   0.0000   0.0000   0.0000   0.1992
 -12.000  -0.4117   0.15184   0.14421  -0.0211  1.0000  0.1095  -1.4430   0.0000   0.0000   0.0000   0.1921
 -11.500  -0.4017   0.14601   0.13843  -0.0230  1.0000  0.1170  -1.4390   0.0000   0.0000   0.0000   0.1865
 -11.000  -0.3885   0.13911   0.13159  -0.0241  1.0000  0.1249  -1.4126   0.0000   0.0000   0.0000   0.1817
 -10.500  -0.3769   0.13254   0.12508  -0.0252  1.0000  0.1325  -1.3903   0.0000   0.0000   0.0000   0.1770
 -10.000  -0.3676   0.12638   0.11902  -0.0264  1.0000  0.1396  -1.3789   0.0000   0.0000   0.0000   0.1724
  -9.750  -0.3705   0.12488   0.11759  -0.0277  1.0000  0.1436  -1.4173   0.0000   0.0000   0.0000   0.1697
  -9.500  -0.3609   0.12066   0.11340  -0.0275  1.0000  0.1474  -1.4016   0.0000   0.0000   0.0000   0.1684
  -9.250  -0.3612   0.11860   0.11141  -0.0282  1.0000  0.1525  -1.4234   0.0000   0.0000   0.0000   0.1666
  -9.000  -0.3561   0.11519   0.10806  -0.0282  1.0000  0.1561  -1.4239   0.0000   0.0000   0.0000   0.1655
  -8.750  -0.3551   0.11287   0.10581  -0.0285  1.0000  0.1618  -1.4351   0.0000   0.0000   0.0000   0.1648
  -8.500  -0.3516   0.10970   0.10272  -0.0283  1.0000  0.1660  -1.4368   0.0000   0.0000   0.0000   0.1646
  -8.250  -0.3548   0.10794   0.10105  -0.0284  1.0000  0.1723  -1.4565   0.0000   0.0000   0.0000   0.1653
  -8.000  -0.3478   0.10436   0.09752  -0.0275  1.0000  0.1788  -1.4379   0.0000   0.0000   0.0000   0.1663
  -7.750  -0.3621   0.10389   0.09722  -0.0275  1.0000  0.1831  -1.4878   0.0000   0.0000   0.0000   0.1700
  -7.500  -0.3533   0.10009   0.09344  -0.0261  1.0000  0.1918  -1.4576   0.0000   0.0000   0.0000   0.1720
  -7.250  -0.3756   0.10028   0.09383  -0.0254  1.0000  0.1939  -1.5207   0.0000   0.0000   0.0000   0.1790
  -7.000  -0.3673   0.09651   0.09011  -0.0235  1.0000  0.2035  -1.4864   0.0000   0.0000   0.0000   0.1827
  -6.750  -0.3631   0.09324   0.08691  -0.0217  1.0000  0.2106  -1.4660   0.0000   0.0000   0.0000   0.1869
  -6.500  -0.3828   0.09307   0.08691  -0.0229  1.0000  0.2155  -1.5310   0.0000   0.0000   0.0000   0.1873
  -6.250  -0.3752   0.08934   0.08324  -0.0201  1.0000  0.2250  -1.4908   0.0000   0.0000   0.0000   0.1936
  -6.000  -0.3737   0.08641   0.08038  -0.0183  1.0000  0.2325  -1.4751   0.0000   0.0000   0.0000   0.1984
  -5.750  -0.3788   0.08423   0.07831  -0.0178  1.0000  0.2406  -1.4852   0.0000   0.0000   0.0000   0.2006
  -5.500  -0.3834   0.08220   0.07636  -0.0179  1.0000  0.2505  -1.4969   0.0000   0.0000   0.0000   0.2011
  -5.250  -0.3843   0.07979   0.07402  -0.0173  1.0000  0.2620  -1.4927   0.0000   0.0000   0.0000   0.2028
  -5.000  -0.3826   0.07702   0.07131  -0.0158  1.0000  0.2745  -1.4731   0.0000   0.0000   0.0000   0.2067
  -4.750  -0.3797   0.07419   0.06854  -0.0132  1.0000  0.2896  -1.4401   0.0000   0.0000   0.0000   0.2133
  -4.250  -0.3762   0.06916   0.06360  -0.0098  1.0000  0.3308  -1.3894   0.0000   0.0000   0.0000   0.2222
  -4.000  -0.3738   0.06656   0.06105  -0.0075  1.0000  0.3550  -1.3661   0.0000   0.0000   0.0000   0.2282
  -3.750  -0.3713   0.06408   0.05863  -0.0051  1.0000  0.3839  -1.3489   0.0000   0.0000   0.0000   0.2346
  -3.500  -0.3702   0.06157   0.05619  -0.0017  1.0000  0.4183  -1.3276   0.0000   0.0000   0.0000   0.2439
  -2.750  -0.1785   0.04149   0.03387  -0.0548  1.0000  0.1713  -1.6402   0.0000   0.0000   0.0000  -0.0598
  -2.500  -0.1381   0.03724   0.02888  -0.0588  1.0000  0.1553  -1.6659   0.0000   0.0000   0.0000  -0.1801
  -2.250  -0.1075   0.03476   0.02597  -0.0603  1.0000  0.1577  -1.6277   0.0000   0.0000   0.0000  -0.3158
  -2.000  -0.0758   0.03245   0.02308  -0.0617  1.0000  0.1594  -1.6078   0.0000   0.0000   0.0000  -0.5700
  -1.750  -0.0477   0.03083   0.02108  -0.0623  1.0000  0.1687  -1.5542   0.0000   0.0000   0.0000  -1.0639
  -1.500  -0.0203   0.02947   0.01937  -0.0626  1.0000  0.1800  -1.4915   0.0000   0.0000   0.0000  -2.8472
  -1.250   0.0054   0.02845   0.01807  -0.0627  1.0000  0.1963  -1.4139   0.0000   0.0000   0.0000  11.8622
  -1.000   0.0295   0.02768   0.01719  -0.0625  1.0000  0.2192  -1.3426   0.0000   0.0000   0.0000   2.3770
  -0.750   0.0547   0.02709   0.01646  -0.0625  1.0000  0.2525  -1.2635   0.0000   0.0000   0.0000   1.3966
  -0.500   0.0813   0.02651   0.01592  -0.0627  1.0000  0.3041  -1.1728   0.0000   0.0000   0.0000   1.0237
  -0.250   0.1118   0.02548   0.01537  -0.0635  1.0000  0.4121  -1.0706   0.0000   0.0000   0.0000   0.8198
   0.000   0.1282   0.02350   0.01483  -0.0613  1.0000  1.0000  -1.0135   0.0000   0.0000   0.0000   0.7286
   0.250   0.1492   0.02432   0.01509  -0.0613  0.9996  1.0000  -0.9177   0.0000   0.0000   0.0000   0.6613
   0.500   0.2012   0.02562   0.01588  -0.0672  0.9853  1.0000  -0.7412   0.0000   0.0000   0.0000   0.5834
   0.750   0.2488   0.02678   0.01669  -0.0721  0.9709  1.0000  -0.5893   0.0000   0.0000   0.0000   0.5391
   1.000   0.2934   0.02785   0.01749  -0.0764  0.9564  1.0000  -0.4986   0.0000   0.0000   0.0000   0.5094
   1.250   0.3330   0.02883   0.01828  -0.0798  0.9415  1.0000  -0.5216   0.0000   0.0000   0.0000   0.4881
   1.500   0.3732   0.02978   0.01909  -0.0830  0.9273  1.0000  -0.5460   0.0000   0.0000   0.0000   0.4708
   1.750   0.4149   0.03071   0.01991  -0.0864  0.9139  1.0000  -0.5725   0.0000   0.0000   0.0000   0.4564
   2.000   0.4465   0.03159   0.02072  -0.0881  0.8995  1.0000  -0.5934   0.0000   0.0000   0.0000   0.4451
   2.250   0.4787   0.03248   0.02155  -0.0897  0.8856  1.0000  -0.6156   0.0000   0.0000   0.0000   0.4351
   2.500   0.5111   0.03336   0.02242  -0.0913  0.8721  1.0000  -0.6390   0.0000   0.0000   0.0000   0.4262
   2.750   0.5427   0.03426   0.02332  -0.0927  0.8590  1.0000  -0.6630   0.0000   0.0000   0.0000   0.4182
   3.000   0.5731   0.03516   0.02424  -0.0939  0.8460  1.0000  -0.6876   0.0000   0.0000   0.0000   0.4109
   3.250   0.6024   0.03609   0.02521  -0.0949  0.8332  1.0000  -0.7127   0.0000   0.0000   0.0000   0.4043
   3.500   0.6310   0.03704   0.02624  -0.0956  0.8205  1.0000  -0.7393   0.0000   0.0000   0.0000   0.3982
   3.750   0.6588   0.03801   0.02728  -0.0963  0.8079  1.0000  -0.7677   0.0000   0.0000   0.0000   0.3926
   4.000   0.6866   0.03900   0.02835  -0.0968  0.7954  1.0000  -0.8042   0.0000   0.0000   0.0000   0.3873
   4.250   0.7147   0.03997   0.02944  -0.0973  0.7829  1.0000  -0.8899   0.0000   0.0000   0.0000   0.3822
   4.500   0.7437   0.04091   0.03054  -0.0979  0.7703  1.0000  -0.9961   0.0000   0.0000   0.0000   0.3774
   4.750   0.7742   0.04178   0.03157  -0.0984  0.7576  1.0000  -1.1207   0.0000   0.0000   0.0000   0.3727
   5.000   0.8070   0.04253   0.03251  -0.0991  0.7448  1.0000  -1.2613   0.0000   0.0000   0.0000   0.3681
   5.250   0.8335   0.04347   0.03368  -0.0989  0.7310  1.0000  -1.4010   0.0000   0.0000   0.0000   0.3638
   5.500   0.8606   0.04434   0.03476  -0.0987  0.7167  1.0000  -1.5487   0.0000   0.0000   0.0000   0.3595
   5.750   0.8828   0.04540   0.03603  -0.0979  0.7013  1.0000  -1.6843   0.0000   0.0000   0.0000   0.3555
   6.000   0.8991   0.04674   0.03757  -0.0965  0.6845  1.0000  -1.8165   0.0000   0.0000   0.0000   0.3517
   6.250   0.9224   0.04758   0.03871  -0.0953  0.6665  1.0000  -1.9874   0.0000   0.0000   0.0000   0.3475
   6.500   1.0022   0.04350   0.03526  -0.0951  0.6424  1.0000  -2.4527   0.0000   0.0000   0.0000   0.3387
   6.750   1.1186   0.02955   0.02188  -0.0865  0.5553  1.0000  -3.2563   0.0000   0.0000   0.0000   0.3206
   7.000   1.1286   0.02749   0.01983  -0.0785  0.4761  1.0000  -3.4437   0.0000   0.0000   0.0000   0.3124
   7.250   1.1122   0.02780   0.01932  -0.0687  0.3227  1.0000  -3.4599   0.0000   0.0000   0.0000   0.3042
   7.500   1.0971   0.03107   0.02120  -0.0625  0.2172  1.0000  -3.4444   0.0000   0.0000   0.0000   0.2991
   7.750   1.0983   0.03413   0.02367  -0.0589  0.1739  1.0000  -3.4872   0.0000   0.0000   0.0000   0.2954
   8.000   1.1177   0.03692   0.02614  -0.0570  0.1449  1.0000  -3.5920   0.0000   0.0000   0.0000   0.2925
   8.250   1.1557   0.03990   0.02902  -0.0570  0.1233  1.0000  -3.7457   0.0000   0.0000   0.0000   0.2905
   8.500   1.2006   0.04351   0.03256  -0.0581  0.1095  1.0000  -3.9166   0.0000   0.0000   0.0000   0.2893
   8.750   1.2290   0.04705   0.03650  -0.0574  0.1027  1.0000  -4.0473   0.0000   0.0000   0.0000   0.2873
   9.000   1.2529   0.05109   0.04092  -0.0563  0.0994  1.0000  -4.1472   0.0000   0.0000   0.0000   0.2853
   9.250   1.2629   0.05476   0.04514  -0.0540  0.0965  1.0000  -4.1942   0.0000   0.0000   0.0000   0.2828
   9.500   1.2809   0.05903   0.04954  -0.0529  0.0929  1.0000  -4.3039   0.0000   0.0000   0.0000   0.2811
   9.750   1.2828   0.06317   0.05420  -0.0503  0.0928  1.0000  -4.3083   0.0000   0.0000   0.0000   0.2787
  10.000   1.2776   0.06726   0.05882  -0.0473  0.0935  1.0000  -4.2816   0.0000   0.0000   0.0000   0.2763
  10.250   1.2575   0.07117   0.06329  -0.0436  0.0949  1.0000  -4.1971   0.0000   0.0000   0.0000   0.2738
  10.500   1.2360   0.07520   0.06769  -0.0405  0.0961  1.0000  -4.1226   0.0000   0.0000   0.0000   0.2716
  10.750   1.2134   0.07935   0.07210  -0.0380  0.0973  1.0000  -4.0524   0.0000   0.0000   0.0000   0.2700
  11.000   1.1903   0.08393   0.07690  -0.0368  0.0984  1.0000  -3.9798   0.0000   0.0000   0.0000   0.2693
  11.250   1.1694   0.08905   0.08219  -0.0368  0.0995  1.0000  -3.9097   0.0000   0.0000   0.0000   0.2696
  11.500   1.1566   0.09461   0.08786  -0.0374  0.1006  1.0000  -3.8635   0.0000   0.0000   0.0000   0.2702
  11.750   1.0984   0.10309   0.09656  -0.0434  0.1030  1.0000  -3.5897   0.0000   0.0000   0.0000   0.2771
  12.000   1.0639   0.11312   0.10664  -0.0501  0.1073  1.0000  -3.3681   0.0000   0.0000   0.0000   0.2846
  12.250   1.0562   0.12029   0.11383  -0.0530  0.1091  1.0000  -3.2961   0.0000   0.0000   0.0000   0.2875
  12.500   0.9967   0.14121   0.13456  -0.0707  0.1302  1.0000  -2.6766   0.0000   0.0000   0.0000   0.3085


