xflr5 v6.61

 Calculated polar for: NACA4412_8_00

 1 1 Reynolds number fixed          Mach number fixed         

 xtrf =   1.000 (top)        1.000 (bottom)
 Mach =   0.200     Re =     0.090 e 6     Ncrit =   9.000

  alpha     CL        CD       CDp       Cm    Top Xtr Bot Xtr   Cpmin    Chinge    XCp    
 ------- -------- --------- --------- -------- ------- ------- -------- --------- ---------
 -17.500  -0.5501   0.21465   0.20857   0.0071  1.0000  0.0373  -1.4294   0.0000   0.0000   0.0000   0.2525
 -17.000  -0.5334   0.20848   0.20241   0.0037  1.0000  0.0395  -1.4064   0.0000   0.0000   0.0000   0.2469
 -16.500  -0.5198   0.20374   0.19769  -0.0007  1.0000  0.0407  -1.4516   0.0000   0.0000   0.0000   0.2389
 -16.000  -0.5015   0.19573   0.18969  -0.0027  1.0000  0.0422  -1.3986   0.0000   0.0000   0.0000   0.2350
 -15.500  -0.4857   0.18941   0.18339  -0.0056  1.0000  0.0445  -1.4033   0.0000   0.0000   0.0000   0.2291
 -15.000  -0.4743   0.18460   0.17862  -0.0098  1.0000  0.0461  -1.4880   0.0000   0.0000   0.0000   0.2205
 -14.500  -0.4565   0.17666   0.17069  -0.0114  1.0000  0.0479  -1.4398   0.0000   0.0000   0.0000   0.2162
 -14.000  -0.4425   0.17046   0.16451  -0.0141  1.0000  0.0507  -1.4461   0.0000   0.0000   0.0000   0.2097
 -13.500  -0.4329   0.16500   0.15910  -0.0176  1.0000  0.0523  -1.5120   0.0000   0.0000   0.0000   0.2012
 -13.000  -0.4163   0.15775   0.15186  -0.0188  1.0000  0.0562  -1.4517   0.0000   0.0000   0.0000   0.1966
 -12.500  -0.4110   0.15295   0.14713  -0.0226  1.0000  0.0583  -1.5379   0.0000   0.0000   0.0000   0.1872
 -12.000  -0.3928   0.14512   0.13931  -0.0232  1.0000  0.0617  -1.4536   0.0000   0.0000   0.0000   0.1834
 -11.500  -0.3906   0.14074   0.13501  -0.0270  1.0000  0.0644  -1.5446   0.0000   0.0000   0.0000   0.1738
 -11.000  -0.3723   0.13268   0.12698  -0.0270  1.0000  0.0677  -1.4514   0.0000   0.0000   0.0000   0.1704
 -10.500  -0.3718   0.12821   0.12261  -0.0304  1.0000  0.0710  -1.5301   0.0000   0.0000   0.0000   0.1615
 -10.000  -0.3552   0.12063   0.11506  -0.0301  1.0000  0.0746  -1.4658   0.0000   0.0000   0.0000   0.1586
  -9.750  -0.3538   0.11813   0.11260  -0.0313  1.0000  0.0770  -1.4983   0.0000   0.0000   0.0000   0.1553
  -9.500  -0.3608   0.11676   0.11132  -0.0336  1.0000  0.0780  -1.5897   0.0000   0.0000   0.0000   0.1508
  -9.250  -0.3459   0.11200   0.10656  -0.0319  1.0000  0.0809  -1.5060   0.0000   0.0000   0.0000   0.1517
  -9.000  -0.3454   0.10960   0.10422  -0.0326  1.0000  0.0841  -1.5287   0.0000   0.0000   0.0000   0.1498
  -8.750  -0.3555   0.10841   0.10314  -0.0346  1.0000  0.0853  -1.6222   0.0000   0.0000   0.0000   0.1473
  -8.500  -0.3405   0.10388   0.09861  -0.0325  1.0000  0.0887  -1.5340   0.0000   0.0000   0.0000   0.1490
  -8.250  -0.3433   0.10177   0.09658  -0.0329  1.0000  0.0917  -1.5648   0.0000   0.0000   0.0000   0.1489
  -8.000  -0.3579   0.10083   0.09578  -0.0339  1.0000  0.0928  -1.6545   0.0000   0.0000   0.0000   0.1508
  -7.750  -0.3448   0.09654   0.09150  -0.0319  1.0000  0.0954  -1.5798   0.0000   0.0000   0.0000   0.1529
  -7.500  -0.3482   0.09444   0.08948  -0.0308  1.0000  0.0982  -1.5857   0.0000   0.0000   0.0000   0.1572
  -7.250  -0.3643   0.09343   0.08861  -0.0294  1.0000  0.1000  -1.6425   0.0000   0.0000   0.0000   0.1653
  -7.000  -0.3834   0.09249   0.08781  -0.0306  1.0000  0.1008  -1.7400   0.0000   0.0000   0.0000   0.1669
  -6.750  -0.3729   0.08867   0.08401  -0.0263  1.0000  0.1034  -1.6457   0.0000   0.0000   0.0000   0.1761
  -6.500  -0.3779   0.08658   0.08198  -0.0254  1.0000  0.1064  -1.6538   0.0000   0.0000   0.0000   0.1796
  -6.250  -0.3908   0.08492   0.08041  -0.0297  1.0000  0.1088  -1.7655   0.0000   0.0000   0.0000   0.1713
  -6.000  -0.3874   0.08175   0.07728  -0.0256  1.0000  0.1109  -1.6986   0.0000   0.0000   0.0000   0.1812
  -5.750  -0.3875   0.07933   0.07490  -0.0251  1.0000  0.1147  -1.6893   0.0000   0.0000   0.0000   0.1826
  -5.500  -0.3879   0.07632   0.07191  -0.0289  1.0000  0.1182  -1.7483   0.0000   0.0000   0.0000   0.1731
  -5.250  -0.3845   0.07379   0.06943  -0.0263  1.0000  0.1220  -1.6911   0.0000   0.0000   0.0000   0.1795
  -5.000  -0.3788   0.07056   0.06618  -0.0293  1.0000  0.1276  -1.7131   0.0000   0.0000   0.0000   0.1704
  -4.750  -0.3688   0.06743   0.06300  -0.0327  1.0000  0.1357  -1.7202   0.0000   0.0000   0.0000   0.1592
  -4.500  -0.3571   0.06442   0.05993  -0.0349  1.0000  0.1447  -1.7009   0.0000   0.0000   0.0000   0.1503
  -4.250  -0.3509   0.06191   0.05747  -0.0320  1.0000  0.1501  -1.6245   0.0000   0.0000   0.0000   0.1569
  -3.250  -0.2683   0.04948   0.04468  -0.0421  0.9967  0.1994  -1.5133   0.0000   0.0000   0.0000   0.0911
  -3.000  -0.1756   0.03579   0.02919  -0.0605  0.9952  0.1014  -1.9484   0.0000   0.0000   0.0000  -0.0983
  -2.750  -0.1244   0.03090   0.02347  -0.0654  0.9907  0.0910  -1.9707   0.0000   0.0000   0.0000  -0.2812
  -2.500  -0.0768   0.02823   0.02018  -0.0694  0.9846  0.0956  -1.8847   0.0000   0.0000   0.0000  -0.6638
  -2.250  -0.0289   0.02604   0.01717  -0.0729  0.9783  0.1009  -1.8275   0.0000   0.0000   0.0000  -2.2939
  -2.000   0.0155   0.02471   0.01570  -0.0761  0.9709  0.1117  -1.6776   0.0000   0.0000   0.0000   5.2081
  -1.750   0.0603   0.02366   0.01447  -0.0793  0.9633  0.1286  -1.5311   0.0000   0.0000   0.0000   1.5725
  -1.500   0.1045   0.02282   0.01356  -0.0823  0.9552  0.1541  -1.3945   0.0000   0.0000   0.0000   1.0417
  -1.250   0.1459   0.02207   0.01295  -0.0849  0.9460  0.1917  -1.2431   0.0000   0.0000   0.0000   0.8345
  -1.000   0.1861   0.02134   0.01250  -0.0872  0.9366  0.2528  -1.0873   0.0000   0.0000   0.0000   0.7206
  -0.750   0.2260   0.02036   0.01207  -0.0896  0.9273  0.3762  -0.9490   0.0000   0.0000   0.0000   0.6474
  -0.500   0.2684   0.01853   0.01167  -0.0914  0.9192  1.0000  -0.7988   0.0000   0.0000   0.0000   0.5909
  -0.250   0.3098   0.01868   0.01148  -0.0938  0.9082  1.0000  -0.6529   0.0000   0.0000   0.0000   0.5529
   0.000   0.3509   0.01877   0.01134  -0.0961  0.8973  1.0000  -0.5514   0.0000   0.0000   0.0000   0.5237
   0.250   0.3927   0.01881   0.01118  -0.0985  0.8869  1.0000  -0.5778   0.0000   0.0000   0.0000   0.5004
   0.500   0.4405   0.01870   0.01091  -0.1019  0.8787  1.0000  -0.6088   0.0000   0.0000   0.0000   0.4804
   0.750   0.4775   0.01868   0.01079  -0.1032  0.8672  1.0000  -0.6340   0.0000   0.0000   0.0000   0.4651
   1.000   0.5132   0.01866   0.01069  -0.1042  0.8556  1.0000  -0.6594   0.0000   0.0000   0.0000   0.4518
   1.250   0.5479   0.01863   0.01059  -0.1050  0.8439  1.0000  -0.6851   0.0000   0.0000   0.0000   0.4401
   1.500   0.5820   0.01860   0.01051  -0.1056  0.8323  1.0000  -0.7111   0.0000   0.0000   0.0000   0.4297
   1.750   0.6157   0.01856   0.01045  -0.1061  0.8208  1.0000  -0.7379   0.0000   0.0000   0.0000   0.4204
   2.000   0.6497   0.01849   0.01036  -0.1066  0.8098  1.0000  -0.7660   0.0000   0.0000   0.0000   0.4119
   2.250   0.6873   0.01828   0.01012  -0.1075  0.8006  1.0000  -0.7981   0.0000   0.0000   0.0000   0.4040
   2.500   0.7164   0.01836   0.01022  -0.1071  0.7879  1.0000  -0.8253   0.0000   0.0000   0.0000   0.3969
   2.750   0.7449   0.01848   0.01035  -0.1067  0.7751  1.0000  -0.8534   0.0000   0.0000   0.0000   0.3904
   3.000   0.7731   0.01863   0.01052  -0.1062  0.7625  1.0000  -0.8833   0.0000   0.0000   0.0000   0.3844
   3.250   0.8011   0.01881   0.01075  -0.1057  0.7500  1.0000  -0.9344   0.0000   0.0000   0.0000   0.3788
   3.500   0.8291   0.01900   0.01099  -0.1052  0.7378  1.0000  -1.0382   0.0000   0.0000   0.0000   0.3735
   3.750   0.8577   0.01917   0.01121  -0.1048  0.7259  1.0000  -1.1595   0.0000   0.0000   0.0000   0.3685
   4.000   0.8875   0.01931   0.01139  -0.1044  0.7146  1.0000  -1.2968   0.0000   0.0000   0.0000   0.3637
   4.250   0.9165   0.01948   0.01165  -0.1039  0.7027  1.0000  -1.4436   0.0000   0.0000   0.0000   0.3593
   4.500   0.9420   0.01981   0.01208  -0.1031  0.6894  1.0000  -1.5919   0.0000   0.0000   0.0000   0.3550
   4.750   0.9678   0.02013   0.01251  -0.1022  0.6760  1.0000  -1.7453   0.0000   0.0000   0.0000   0.3509
   5.000   0.9939   0.02043   0.01294  -0.1012  0.6622  1.0000  -1.9115   0.0000   0.0000   0.0000   0.3470
   5.250   1.0207   0.02062   0.01325  -0.1002  0.6473  1.0000  -2.1082   0.0000   0.0000   0.0000   0.3430
   5.500   1.0466   0.02041   0.01309  -0.0983  0.6248  1.0000  -2.3249   0.0000   0.0000   0.0000   0.3385
   5.750   1.0710   0.01986   0.01251  -0.0957  0.5932  1.0000  -2.5479   0.0000   0.0000   0.0000   0.3335
   6.000   1.0935   0.01960   0.01227  -0.0931  0.5620  1.0000  -2.7644   0.0000   0.0000   0.0000   0.3290
   6.250   1.1144   0.01949   0.01218  -0.0905  0.5299  1.0000  -2.9753   0.0000   0.0000   0.0000   0.3248
   6.500   1.1309   0.01950   0.01226  -0.0873  0.4904  1.0000  -3.1818   0.0000   0.0000   0.0000   0.3204
   6.750   1.1421   0.01963   0.01234  -0.0832  0.4306  1.0000  -3.3646   0.0000   0.0000   0.0000   0.3157
   7.000   1.1343   0.02101   0.01284  -0.0766  0.2612  1.0000  -3.4352   0.0000   0.0000   0.0000   0.3100
   7.250   1.1211   0.02440   0.01505  -0.0709  0.1426  1.0000  -3.4499   0.0000   0.0000   0.0000   0.3055
   7.500   1.1221   0.02668   0.01705  -0.0669  0.1137  1.0000  -3.5242   0.0000   0.0000   0.0000   0.3015
   7.750   1.1275   0.02861   0.01885  -0.0634  0.0982  1.0000  -3.6252   0.0000   0.0000   0.0000   0.2979
   8.000   1.1380   0.03048   0.02064  -0.0606  0.0878  1.0000  -3.7420   0.0000   0.0000   0.0000   0.2946
   8.250   1.1576   0.03265   0.02256  -0.0592  0.0781  1.0000  -3.9031   0.0000   0.0000   0.0000   0.2922
   8.500   1.1916   0.03522   0.02509  -0.0595  0.0709  1.0000  -4.0813   0.0000   0.0000   0.0000   0.2906
   8.750   1.2232   0.03790   0.02781  -0.0597  0.0643  1.0000  -4.2658   0.0000   0.0000   0.0000   0.2892
   9.000   1.2486   0.04066   0.03102  -0.0586  0.0609  1.0000  -4.4100   0.0000   0.0000   0.0000   0.2870
   9.250   1.2806   0.04437   0.03475  -0.0590  0.0580  1.0000  -4.6130   0.0000   0.0000   0.0000   0.2858
   9.500   1.2891   0.04720   0.03822  -0.0560  0.0561  1.0000  -4.6669   0.0000   0.0000   0.0000   0.2829
   9.750   1.2982   0.05037   0.04185  -0.0535  0.0543  1.0000  -4.7417   0.0000   0.0000   0.0000   0.2804
  10.000   1.3038   0.05406   0.04599  -0.0508  0.0542  1.0000  -4.7747   0.0000   0.0000   0.0000   0.2779
  10.250   1.3019   0.05790   0.05031  -0.0476  0.0547  1.0000  -4.7651   0.0000   0.0000   0.0000   0.2752
  10.500   1.2949   0.06178   0.05461  -0.0443  0.0554  1.0000  -4.7392   0.0000   0.0000   0.0000   0.2725
  10.750   1.2840   0.06551   0.05868  -0.0408  0.0561  1.0000  -4.7103   0.0000   0.0000   0.0000   0.2699
  11.000   1.2721   0.06933   0.06276  -0.0379  0.0568  1.0000  -4.6851   0.0000   0.0000   0.0000   0.2676
  11.250   1.2630   0.07352   0.06715  -0.0358  0.0575  1.0000  -4.6751   0.0000   0.0000   0.0000   0.2658
  11.500   1.2472   0.07757   0.07146  -0.0338  0.0585  1.0000  -4.6263   0.0000   0.0000   0.0000   0.2643
  11.750   1.2058   0.08204   0.07631  -0.0327  0.0595  1.0000  -4.4529   0.0000   0.0000   0.0000   0.2640
  12.000   1.1732   0.08786   0.08240  -0.0339  0.0605  1.0000  -4.3100   0.0000   0.0000   0.0000   0.2655
  12.250   1.1441   0.09446   0.08920  -0.0366  0.0615  1.0000  -4.1772   0.0000   0.0000   0.0000   0.2683
  12.500   1.1179   0.10175   0.09664  -0.0404  0.0624  1.0000  -4.0457   0.0000   0.0000   0.0000   0.2721
  12.750   1.1003   0.10894   0.10391  -0.0440  0.0636  1.0000  -3.9478   0.0000   0.0000   0.0000   0.2757
  13.000   1.0532   0.12272   0.11782  -0.0550  0.0663  1.0000  -3.5618   0.0000   0.0000   0.0000   0.2878
  13.250   1.0254   0.13703   0.13212  -0.0643  0.0724  1.0000  -3.1937   0.0000   0.0000   0.0000   0.2985
  17.000   0.7735   0.20131   0.19680  -0.0870  0.1067  1.0000  -1.4080   0.0000   0.0000   0.0000   0.3477
  17.500   0.7832   0.20860   0.20414  -0.0890  0.1002  1.0000  -1.4122   0.0000   0.0000   0.0000   0.3481
  18.000   0.7909   0.21569   0.21127  -0.0913  0.0926  1.0000  -1.4030   0.0000   0.0000   0.0000   0.3493
  18.500   0.8001   0.22309   0.21869  -0.0934  0.0853  1.0000  -1.4397   0.0000   0.0000   0.0000   0.3499
  19.000   0.7960   0.22890   0.22453  -0.0980  0.0800  1.0000  -1.3537   0.0000   0.0000   0.0000   0.3557
  19.500   0.8010   0.23622   0.23187  -0.1011  0.0760  1.0000  -1.3364   0.0000   0.0000   0.0000   0.3581
  20.000   0.8155   0.24455   0.24026  -0.1022  0.0711  1.0000  -1.4143   0.0000   0.0000   0.0000   0.3565


