xflr5 v6.61

 Calculated polar for: NACA4412_7_50

 1 1 Reynolds number fixed          Mach number fixed         

 xtrf =   1.000 (top)        1.000 (bottom)
 Mach =   0.200     Re =     0.070 e 6     Ncrit =   9.000

  alpha     CL        CD       CDp       Cm    Top Xtr Bot Xtr   Cpmin    Chinge    XCp    
 ------- -------- --------- --------- -------- ------- ------- -------- --------- ---------
 -25.500  -0.5447   0.26931   0.26381   0.0366  1.0000  0.0272  -0.9302   0.0000   0.0000   0.0000   0.3086
 -25.000  -0.5351   0.26335   0.25780   0.0335  1.0000  0.0283  -0.9273   0.0000   0.0000   0.0000   0.3045
 -24.500  -0.5254   0.25763   0.25204   0.0303  1.0000  0.0296  -0.9336   0.0000   0.0000   0.0000   0.3000
 -24.000  -0.5160   0.25246   0.24683   0.0270  1.0000  0.0306  -0.9586   0.0000   0.0000   0.0000   0.2950
 -23.500  -0.5061   0.24662   0.24097   0.0239  1.0000  0.0313  -0.9612   0.0000   0.0000   0.0000   0.2903
 -23.000  -0.4954   0.24058   0.23488   0.0210  1.0000  0.0326  -0.9362   0.0000   0.0000   0.0000   0.2860
 -22.500  -0.4850   0.23510   0.22936   0.0180  1.0000  0.0341  -0.9295   0.0000   0.0000   0.0000   0.2810
 -22.000  -0.4751   0.23011   0.22433   0.0148  1.0000  0.0353  -0.9388   0.0000   0.0000   0.0000   0.2754
 -21.500  -0.4656   0.22526   0.21946   0.0116  1.0000  0.0359  -0.9518   0.0000   0.0000   0.0000   0.2695
 -21.000  -0.4536   0.21889   0.21306   0.0092  1.0000  0.0374  -0.9320   0.0000   0.0000   0.0000   0.2650
 -20.500  -0.4428   0.21370   0.20784   0.0064  1.0000  0.0392  -0.9457   0.0000   0.0000   0.0000   0.2594
 -20.000  -0.4334   0.20934   0.20345   0.0032  1.0000  0.0405  -0.9862   0.0000   0.0000   0.0000   0.2527
 -19.500  -0.4221   0.20367   0.19777   0.0007  1.0000  0.0417  -0.9861   0.0000   0.0000   0.0000   0.2470
 -19.000  -0.4107   0.19844   0.19250  -0.0018  1.0000  0.0442  -0.9759   0.0000   0.0000   0.0000   0.2412
 -18.500  -0.4021   0.19463   0.18868  -0.0049  1.0000  0.0460  -1.0125   0.0000   0.0000   0.0000   0.2336
 -18.000  -0.3903   0.18886   0.18289  -0.0071  1.0000  0.0474  -0.9943   0.0000   0.0000   0.0000   0.2277
 -17.500  -0.3792   0.18394   0.17796  -0.0094  1.0000  0.0499  -0.9810   0.0000   0.0000   0.0000   0.2211
 -17.000  -0.3717   0.18051   0.17452  -0.0123  1.0000  0.0518  -1.0123   0.0000   0.0000   0.0000   0.2129
 -16.500  -0.3597   0.17475   0.16875  -0.0142  1.0000  0.0535  -0.9805   0.0000   0.0000   0.0000   0.2066
 -16.000  -0.3497   0.17023   0.16421  -0.0163  1.0000  0.0564  -0.9835   0.0000   0.0000   0.0000   0.1994
 -15.500  -0.3464   0.16810   0.16208  -0.0192  1.0000  0.0580  -1.0657   0.0000   0.0000   0.0000   0.1906
 -15.000  -0.3316   0.16132   0.15530  -0.0203  1.0000  0.0610  -1.0311   0.0000   0.0000   0.0000   0.1848
 -14.500  -0.3280   0.15868   0.15266  -0.0227  1.0000  0.0642  -1.0915   0.0000   0.0000   0.0000   0.1769
 -14.000  -0.3169   0.15314   0.14711  -0.0238  1.0000  0.0674  -1.0766   0.0000   0.0000   0.0000   0.1710
 -13.500  -0.3165   0.15087   0.14485  -0.0258  1.0000  0.0708  -1.1367   0.0000   0.0000   0.0000   0.1645
 -13.000  -0.3057   0.14498   0.13897  -0.0267  1.0000  0.0737  -1.1210   0.0000   0.0000   0.0000   0.1586
 -12.500  -0.3025   0.14114   0.13515  -0.0286  1.0000  0.0776  -1.1614   0.0000   0.0000   0.0000   0.1516
 -12.000  -0.2925   0.13503   0.12908  -0.0294  1.0000  0.0808  -1.1454   0.0000   0.0000   0.0000   0.1455
 -11.500  -0.2916   0.13090   0.12498  -0.0312  1.0000  0.0850  -1.1895   0.0000   0.0000   0.0000   0.1392
 -11.000  -0.2804   0.12421   0.11834  -0.0314  1.0000  0.0892  -1.1535   0.0000   0.0000   0.0000   0.1341
 -10.500  -0.2874   0.12056   0.11478  -0.0335  1.0000  0.0929  -1.2309   0.0000   0.0000   0.0000   0.1300
 -10.000  -0.2760   0.11358   0.10785  -0.0331  1.0000  0.0999  -1.1810   0.0000   0.0000   0.0000   0.1266
  -9.500  -0.2699   0.10733   0.10168  -0.0328  1.0000  0.1061  -1.1860   0.0000   0.0000   0.0000   0.1250
  -9.250  -0.2770   0.10555   0.09998  -0.0336  1.0000  0.1085  -1.2386   0.0000   0.0000   0.0000   0.1254
  -8.750  -0.3500   0.10936   0.10334  -0.0302  1.0000  0.1063  -1.4585   0.0000   0.0000   0.0000   0.1589
  -8.500  -0.3581   0.10824   0.10233  -0.0317  1.0000  0.1087  -1.5245   0.0000   0.0000   0.0000   0.1570
  -8.250  -0.3469   0.10395   0.09806  -0.0304  1.0000  0.1124  -1.4810   0.0000   0.0000   0.0000   0.1579
  -8.000  -0.3505   0.10206   0.09627  -0.0306  1.0000  0.1161  -1.5102   0.0000   0.0000   0.0000   0.1584
  -7.750  -0.3666   0.10161   0.09598  -0.0311  1.0000  0.1173  -1.5867   0.0000   0.0000   0.0000   0.1615
  -7.500  -0.3497   0.09672   0.09106  -0.0292  1.0000  0.1218  -1.5161   0.0000   0.0000   0.0000   0.1628
  -7.250  -0.3612   0.09552   0.08999  -0.0283  1.0000  0.1249  -1.5563   0.0000   0.0000   0.0000   0.1683
  -7.000  -0.3791   0.09496   0.08962  -0.0297  1.0000  0.1260  -1.6418   0.0000   0.0000   0.0000   0.1687
  -6.750  -0.3655   0.09054   0.08519  -0.0257  1.0000  0.1308  -1.5595   0.0000   0.0000   0.0000   0.1768
  -6.500  -0.3766   0.08921   0.08397  -0.0272  1.0000  0.1344  -1.6190   0.0000   0.0000   0.0000   0.1751
  -6.250  -0.3743   0.08601   0.08085  -0.0251  1.0000  0.1374  -1.5967   0.0000   0.0000   0.0000   0.1803
  -6.000  -0.3770   0.08389   0.07879  -0.0255  1.0000  0.1427  -1.6124   0.0000   0.0000   0.0000   0.1800
  -5.750  -0.3778   0.08112   0.07609  -0.0255  1.0000  0.1461  -1.6216   0.0000   0.0000   0.0000   0.1803
  -5.500  -0.3770   0.07882   0.07381  -0.0270  1.0000  0.1528  -1.6373   0.0000   0.0000   0.0000   0.1764
  -5.250  -0.3739   0.07580   0.07085  -0.0249  1.0000  0.1577  -1.6066   0.0000   0.0000   0.0000   0.1813
  -5.000  -0.3700   0.07301   0.06808  -0.0266  1.0000  0.1655  -1.6133   0.0000   0.0000   0.0000   0.1763
  -4.750  -0.3637   0.07019   0.06527  -0.0277  1.0000  0.1751  -1.6043   0.0000   0.0000   0.0000   0.1720
  -4.500  -0.3558   0.06732   0.06240  -0.0284  1.0000  0.1854  -1.5828   0.0000   0.0000   0.0000   0.1685
  -4.250  -0.3461   0.06441   0.05948  -0.0290  1.0000  0.1963  -1.5546   0.0000   0.0000   0.0000   0.1647
  -4.000  -0.3348   0.06148   0.05652  -0.0295  1.0000  0.2079  -1.5202   0.0000   0.0000   0.0000   0.1601
  -3.750  -0.3217   0.05865   0.05366  -0.0303  1.0000  0.2220  -1.4792   0.0000   0.0000   0.0000   0.1542
  -2.750  -0.1721   0.03935   0.03271  -0.0561  1.0000  0.1457  -1.6836   0.0000   0.0000   0.0000  -0.0788
  -2.500  -0.1252   0.03365   0.02607  -0.0606  1.0000  0.1144  -1.8050   0.0000   0.0000   0.0000  -0.2379
  -2.250  -0.0933   0.03101   0.02283  -0.0620  1.0000  0.1151  -1.7783   0.0000   0.0000   0.0000  -0.4205
  -2.000  -0.0625   0.02878   0.01999  -0.0629  1.0000  0.1156  -1.7370   0.0000   0.0000   0.0000  -0.7643
  -1.750  -0.0363   0.02747   0.01836  -0.0631  1.0000  0.1233  -1.6733   0.0000   0.0000   0.0000  -1.5032
  -1.500  -0.0102   0.02631   0.01690  -0.0632  1.0000  0.1311  -1.6078   0.0000   0.0000   0.0000  -6.0048
  -1.250   0.0314   0.02533   0.01569  -0.0661  0.9947  0.1491  -1.4863   0.0000   0.0000   0.0000   2.3673
  -1.000   0.0806   0.02456   0.01477  -0.0702  0.9863  0.1818  -1.3336   0.0000   0.0000   0.0000   1.1249
  -0.750   0.1262   0.02387   0.01423  -0.0737  0.9766  0.2348  -1.1927   0.0000   0.0000   0.0000   0.8359
  -0.500   0.1742   0.02295   0.01373  -0.0776  0.9678  0.3507  -1.0344   0.0000   0.0000   0.0000   0.6967
  -0.250   0.2168   0.02093   0.01323  -0.0798  0.9583  1.0000  -0.8906   0.0000   0.0000   0.0000   0.6183
   0.000   0.2642   0.02148   0.01331  -0.0838  0.9462  1.0000  -0.7224   0.0000   0.0000   0.0000   0.5671
   0.250   0.3057   0.02195   0.01350  -0.0868  0.9329  1.0000  -0.5758   0.0000   0.0000   0.0000   0.5335
   0.500   0.3458   0.02238   0.01369  -0.0894  0.9192  1.0000  -0.5292   0.0000   0.0000   0.0000   0.5079
   0.750   0.3866   0.02276   0.01391  -0.0921  0.9063  1.0000  -0.5544   0.0000   0.0000   0.0000   0.4873
   1.000   0.4270   0.02310   0.01411  -0.0946  0.8935  1.0000  -0.5803   0.0000   0.0000   0.0000   0.4703
   1.250   0.4664   0.02340   0.01431  -0.0968  0.8810  1.0000  -0.6064   0.0000   0.0000   0.0000   0.4561
   1.500   0.5051   0.02365   0.01451  -0.0988  0.8685  1.0000  -0.6330   0.0000   0.0000   0.0000   0.4439
   1.750   0.5424   0.02389   0.01471  -0.1004  0.8561  1.0000  -0.6599   0.0000   0.0000   0.0000   0.4333
   2.000   0.5790   0.02411   0.01492  -0.1019  0.8438  1.0000  -0.6874   0.0000   0.0000   0.0000   0.4239
   2.250   0.6146   0.02433   0.01514  -0.1031  0.8317  1.0000  -0.7154   0.0000   0.0000   0.0000   0.4154
   2.500   0.6484   0.02455   0.01538  -0.1038  0.8198  1.0000  -0.7436   0.0000   0.0000   0.0000   0.4077
   2.750   0.6820   0.02474   0.01563  -0.1045  0.8081  1.0000  -0.7734   0.0000   0.0000   0.0000   0.4006
   3.000   0.7181   0.02480   0.01575  -0.1054  0.7976  1.0000  -0.8071   0.0000   0.0000   0.0000   0.3939
   3.250   0.7555   0.02476   0.01579  -0.1062  0.7875  1.0000  -0.8510   0.0000   0.0000   0.0000   0.3876
   3.500   0.7835   0.02508   0.01622  -0.1059  0.7749  1.0000  -0.9527   0.0000   0.0000   0.0000   0.3819
   3.750   0.8111   0.02544   0.01668  -0.1055  0.7623  1.0000  -1.0709   0.0000   0.0000   0.0000   0.3766
   4.000   0.8387   0.02579   0.01714  -0.1050  0.7498  1.0000  -1.2010   0.0000   0.0000   0.0000   0.3715
   4.250   0.8670   0.02610   0.01759  -0.1046  0.7375  1.0000  -1.3499   0.0000   0.0000   0.0000   0.3667
   4.500   0.8967   0.02632   0.01799  -0.1042  0.7255  1.0000  -1.5106   0.0000   0.0000   0.0000   0.3620
   4.750   0.9288   0.02638   0.01822  -0.1038  0.7137  1.0000  -1.6969   0.0000   0.0000   0.0000   0.3574
   5.000   0.9634   0.02623   0.01826  -0.1036  0.7019  1.0000  -1.9140   0.0000   0.0000   0.0000   0.3529
   5.500   1.0153   0.02659   0.01906  -0.1008  0.6689  1.0000  -2.3385   0.0000   0.0000   0.0000   0.3441
   5.750   1.0546   0.02414   0.01667  -0.0974  0.6327  1.0000  -2.6481   0.0000   0.0000   0.0000   0.3368
   6.000   1.0817   0.02262   0.01515  -0.0933  0.5890  1.0000  -2.9284   0.0000   0.0000   0.0000   0.3304
   6.250   1.1016   0.02198   0.01458  -0.0895  0.5456  1.0000  -3.1713   0.0000   0.0000   0.0000   0.3250
   6.500   1.1131   0.02159   0.01417  -0.0843  0.4828  1.0000  -3.3607   0.0000   0.0000   0.0000   0.3192
   6.750   1.1037   0.02236   0.01420  -0.0764  0.3105  1.0000  -3.4130   0.0000   0.0000   0.0000   0.3123
   7.000   1.0883   0.02607   0.01635  -0.0704  0.1642  1.0000  -3.4029   0.0000   0.0000   0.0000   0.3074
   7.250   1.0901   0.02869   0.01859  -0.0665  0.1296  1.0000  -3.4592   0.0000   0.0000   0.0000   0.3035
   7.500   1.0989   0.03088   0.02059  -0.0635  0.1106  1.0000  -3.5540   0.0000   0.0000   0.0000   0.3000
   7.750   1.1194   0.03310   0.02271  -0.0616  0.0971  1.0000  -3.6782   0.0000   0.0000   0.0000   0.2970
   8.000   1.1541   0.03589   0.02519  -0.0619  0.0854  1.0000  -3.8546   0.0000   0.0000   0.0000   0.2952
   8.250   1.1921   0.03904   0.02839  -0.0624  0.0780  1.0000  -4.0468   0.0000   0.0000   0.0000   0.2936
   8.500   1.2173   0.04189   0.03166  -0.0613  0.0727  1.0000  -4.1905   0.0000   0.0000   0.0000   0.2914
   8.750   1.2471   0.04586   0.03585  -0.0610  0.0707  1.0000  -4.3292   0.0000   0.0000   0.0000   0.2896
   9.000   1.2607   0.04932   0.03993  -0.0585  0.0696  1.0000  -4.3770   0.0000   0.0000   0.0000   0.2869
   9.250   1.2687   0.05282   0.04398  -0.0558  0.0682  1.0000  -4.4156   0.0000   0.0000   0.0000   0.2842
   9.500   1.2739   0.05648   0.04809  -0.0532  0.0670  1.0000  -4.4504   0.0000   0.0000   0.0000   0.2817
   9.750   1.2731   0.06045   0.05254  -0.0502  0.0674  1.0000  -4.4419   0.0000   0.0000   0.0000   0.2791
  10.000   1.2680   0.06464   0.05718  -0.0472  0.0685  1.0000  -4.4113   0.0000   0.0000   0.0000   0.2766
  10.250   1.2621   0.06893   0.06180  -0.0446  0.0697  1.0000  -4.3898   0.0000   0.0000   0.0000   0.2745
  10.500   1.2645   0.07386   0.06691  -0.0431  0.0710  1.0000  -4.4072   0.0000   0.0000   0.0000   0.2730
  10.750   1.2288   0.07669   0.07019  -0.0386  0.0723  1.0000  -4.2739   0.0000   0.0000   0.0000   0.2701
  11.000   1.1969   0.08085   0.07465  -0.0366  0.0736  1.0000  -4.1553   0.0000   0.0000   0.0000   0.2690
  11.250   1.1686   0.08584   0.07987  -0.0365  0.0747  1.0000  -4.0507   0.0000   0.0000   0.0000   0.2694
  11.500   1.1434   0.09155   0.08575  -0.0379  0.0758  1.0000  -3.9516   0.0000   0.0000   0.0000   0.2710
  11.750   1.1252   0.09767   0.09199  -0.0399  0.0771  1.0000  -3.8735   0.0000   0.0000   0.0000   0.2730
  12.000   1.1027   0.10474   0.09919  -0.0435  0.0788  1.0000  -3.7520   0.0000   0.0000   0.0000   0.2767
  12.250   1.0491   0.11825   0.11279  -0.0548  0.0832  1.0000  -3.3640   0.0000   0.0000   0.0000   0.2895
  12.500   1.0505   0.12397   0.11852  -0.0559  0.0852  1.0000  -3.3509   0.0000   0.0000   0.0000   0.2902
  12.750   0.9665   0.16348   0.15780  -0.0894  0.2058  1.0000  -2.0657   0.0000   0.0000   0.0000   0.3308


