xflr5 v6.61

 Calculated polar for: NACA4412_7_20

 1 1 Reynolds number fixed          Mach number fixed         

 xtrf =   1.000 (top)        1.000 (bottom)
 Mach =   0.200     Re =     0.100 e 6     Ncrit =   7.000

  alpha     CL        CD       CDp       Cm    Top Xtr Bot Xtr   Cpmin    Chinge    XCp    
 ------- -------- --------- --------- -------- ------- ------- -------- --------- ---------
 -16.500  -0.5360   0.20329   0.19756   0.0052  1.0000  0.0275  -1.4695   0.0000   0.0000   0.0000   0.2516
 -16.000  -0.5196   0.19693   0.19122   0.0021  1.0000  0.0293  -1.4406   0.0000   0.0000   0.0000   0.2462
 -15.500  -0.5054   0.19148   0.18579  -0.0020  1.0000  0.0308  -1.4878   0.0000   0.0000   0.0000   0.2385
 -15.000  -0.4890   0.18410   0.17842  -0.0042  1.0000  0.0319  -1.4170   0.0000   0.0000   0.0000   0.2341
 -14.500  -0.4737   0.17765   0.17198  -0.0069  1.0000  0.0337  -1.3952   0.0000   0.0000   0.0000   0.2283
 -14.000  -0.4605   0.17172   0.16608  -0.0102  1.0000  0.0353  -1.4600   0.0000   0.0000   0.0000   0.2208
 -13.500  -0.4474   0.16511   0.15951  -0.0130  1.0000  0.0361  -1.4969   0.0000   0.0000   0.0000   0.2143
 -13.000  -0.4324   0.15829   0.15271  -0.0148  1.0000  0.0380  -1.4653   0.0000   0.0000   0.0000   0.2093
 -12.500  -0.4209   0.15222   0.14667  -0.0176  1.0000  0.0402  -1.5112   0.0000   0.0000   0.0000   0.2018
 -12.000  -0.4117   0.14623   0.14074  -0.0207  1.0000  0.0410  -1.5821   0.0000   0.0000   0.0000   0.1937
 -11.500  -0.3965   0.13915   0.13367  -0.0216  1.0000  0.0434  -1.5182   0.0000   0.0000   0.0000   0.1895
 -11.000  -0.3897   0.13375   0.12833  -0.0249  1.0000  0.0460  -1.5958   0.0000   0.0000   0.0000   0.1805
 -10.500  -0.3759   0.12673   0.12135  -0.0256  1.0000  0.0486  -1.5384   0.0000   0.0000   0.0000   0.1763
 -10.000  -0.3710   0.12150   0.11620  -0.0286  1.0000  0.0517  -1.6089   0.0000   0.0000   0.0000   0.1677
  -9.500  -0.3595   0.11471   0.10947  -0.0292  1.0000  0.0536  -1.5691   0.0000   0.0000   0.0000   0.1637
  -9.000  -0.3530   0.10915   0.10400  -0.0306  1.0000  0.0570  -1.5774   0.0000   0.0000   0.0000   0.1585
  -8.500  -0.3534   0.10390   0.09889  -0.0324  1.0000  0.0585  -1.6451   0.0000   0.0000   0.0000   0.1538
  -8.000  -0.3453   0.09809   0.09317  -0.0314  1.0000  0.0620  -1.5787   0.0000   0.0000   0.0000   0.1549
  -7.500  -0.3625   0.09473   0.09003  -0.0316  1.0000  0.0642  -1.7119   0.0000   0.0000   0.0000   0.1595
  -7.000  -0.3639   0.08940   0.08482  -0.0282  1.0000  0.0662  -1.6877   0.0000   0.0000   0.0000   0.1695
  -6.500  -0.3718   0.08499   0.08056  -0.0275  1.0000  0.0698  -1.7334   0.0000   0.0000   0.0000   0.1733
  -6.000  -0.3761   0.07979   0.07548  -0.0284  1.0000  0.0725  -1.7910   0.0000   0.0000   0.0000   0.1723
  -5.000  -0.3540   0.06765   0.06334  -0.0369  1.0000  0.0858  -1.8933   0.0000   0.0000   0.0000   0.1439
  -4.500  -0.3179   0.06028   0.05587  -0.0422  0.9971  0.0940  -1.8430   0.0000   0.0000   0.0000   0.1153
  -4.000  -0.2130   0.04326   0.03787  -0.0641  0.9872  0.0579  -2.2455   0.0000   0.0000   0.0000  -0.0545
  -3.500  -0.1250   0.03188   0.02522  -0.0751  0.9776  0.0515  -2.3601   0.0000   0.0000   0.0000  -0.3568
  -3.000  -0.0418   0.02562   0.01775  -0.0815  0.9674  0.0557  -2.2574   0.0000   0.0000   0.0000  -1.7173
  -2.500   0.0398   0.02183   0.01297  -0.0862  0.9566  0.0661  -1.9944   0.0000   0.0000   0.0000   2.4315
  -2.000   0.1174   0.01960   0.01044  -0.0900  0.9440  0.0869  -1.6691   0.0000   0.0000   0.0000   1.0212
  -1.500   0.1907   0.01809   0.00902  -0.0931  0.9288  0.1354  -1.3175   0.0000   0.0000   0.0000   0.7405
  -1.000   0.2674   0.01665   0.00814  -0.0971  0.9150  0.2790  -0.9797   0.0000   0.0000   0.0000   0.6139
  -0.500   0.3485   0.01438   0.00745  -0.1009  0.9025  1.0000  -0.6477   0.0000   0.0000   0.0000   0.5398
   0.000   0.4166   0.01432   0.00697  -0.1026  0.8816  1.0000  -0.5728   0.0000   0.0000   0.0000   0.4958
   0.500   0.4837   0.01421   0.00660  -0.1038  0.8603  1.0000  -0.6182   0.0000   0.0000   0.0000   0.4638
   1.000   0.5498   0.01407   0.00628  -0.1048  0.8381  1.0000  -0.6657   0.0000   0.0000   0.0000   0.4393
   1.500   0.6130   0.01398   0.00607  -0.1050  0.8140  1.0000  -0.7144   0.0000   0.0000   0.0000   0.4197
   2.000   0.6718   0.01403   0.00604  -0.1046  0.7868  1.0000  -0.7636   0.0000   0.0000   0.0000   0.4035
   2.500   0.7285   0.01421   0.00619  -0.1037  0.7581  1.0000  -0.8155   0.0000   0.0000   0.0000   0.3899
   3.000   0.7841   0.01451   0.00648  -0.1028  0.7293  1.0000  -0.9195   0.0000   0.0000   0.0000   0.3782
   3.500   0.8389   0.01490   0.00693  -0.1017  0.7011  1.0000  -1.1773   0.0000   0.0000   0.0000   0.3679
   4.000   0.8931   0.01539   0.00751  -0.1006  0.6735  1.0000  -1.4843   0.0000   0.0000   0.0000   0.3588
   4.500   0.9458   0.01598   0.00829  -0.0992  0.6452  1.0000  -1.8599   0.0000   0.0000   0.0000   0.3506
   5.000   0.9954   0.01648   0.00901  -0.0969  0.6083  1.0000  -2.2869   0.0000   0.0000   0.0000   0.3425
   5.500   1.0345   0.01657   0.00894  -0.0915  0.5250  1.0000  -2.7334   0.0000   0.0000   0.0000   0.3331
   6.000   1.0691   0.01735   0.00962  -0.0864  0.4178  1.0000  -3.1818   0.0000   0.0000   0.0000   0.3248
   6.500   1.0677   0.02216   0.01231  -0.0776  0.0989  1.0000  -3.3870   0.0000   0.0000   0.0000   0.3162
   7.000   1.0867   0.02569   0.01567  -0.0718  0.0636  1.0000  -3.6490   0.0000   0.0000   0.0000   0.3090
   7.500   1.1080   0.02900   0.01903  -0.0664  0.0514  1.0000  -3.9181   0.0000   0.0000   0.0000   0.3023
   8.000   1.1436   0.03266   0.02279  -0.0629  0.0423  1.0000  -4.2885   0.0000   0.0000   0.0000   0.2968
   8.500   1.1940   0.03743   0.02768  -0.0618  0.0358  1.0000  -4.7410   0.0000   0.0000   0.0000   0.2929
   9.000   1.1748   0.03378   0.02536  -0.0514  0.0336  1.0000  -4.7582   0.0000   0.0000   0.0000   0.2845
   9.500   1.1904   0.04133   0.03373  -0.0465  0.0327  1.0000  -4.8642   0.0000   0.0000   0.0000   0.2793
  10.000   1.1970   0.04867   0.04142  -0.0421  0.0308  1.0000  -5.0687   0.0000   0.0000   0.0000   0.2748
  10.500   1.1613   0.05544   0.04890  -0.0341  0.0306  1.0000  -4.9793   0.0000   0.0000   0.0000   0.2685
  11.000   1.1208   0.06354   0.05754  -0.0292  0.0305  1.0000  -4.8792   0.0000   0.0000   0.0000   0.2646
  11.500   1.0782   0.07303   0.06748  -0.0274  0.0306  1.0000  -4.7649   0.0000   0.0000   0.0000   0.2634
  12.000   1.0362   0.08343   0.07822  -0.0283  0.0308  1.0000  -4.6399   0.0000   0.0000   0.0000   0.2648
  12.500   1.1055   0.10272   0.09773  -0.0457  0.0307  1.0000  -4.6808   0.0000   0.0000   0.0000   0.2776


