xflr5 v6.61

 Calculated polar for: NACA4412_7_70

 1 1 Reynolds number fixed          Mach number fixed         

 xtrf =   1.000 (top)        1.000 (bottom)
 Mach =   0.200     Re =     0.125 e 6     Ncrit =   7.000

  alpha     CL        CD       CDp       Cm    Top Xtr Bot Xtr   Cpmin    Chinge    XCp    
 ------- -------- --------- --------- -------- ------- ------- -------- --------- ---------
 -22.500  -0.7288   0.27648   0.27130   0.0475  1.0000  0.0154  -1.6117   0.0000   0.0000   0.0000   0.3008
 -22.000  -0.7116   0.27041   0.26522   0.0435  1.0000  0.0160  -1.5579   0.0000   0.0000   0.0000   0.2973
 -21.500  -0.6942   0.26436   0.25916   0.0393  1.0000  0.0168  -1.5227   0.0000   0.0000   0.0000   0.2934
 -21.000  -0.6764   0.25827   0.25307   0.0351  1.0000  0.0180  -1.5090   0.0000   0.0000   0.0000   0.2891
 -20.500  -0.6589   0.25280   0.24760   0.0303  1.0000  0.0184  -1.5723   0.0000   0.0000   0.0000   0.2837
 -20.000  -0.6415   0.24572   0.24052   0.0269  1.0000  0.0188  -1.5401   0.0000   0.0000   0.0000   0.2800
 -19.500  -0.6241   0.23935   0.23415   0.0233  1.0000  0.0196  -1.5034   0.0000   0.0000   0.0000   0.2760
 -19.000  -0.6066   0.23309   0.22789   0.0196  1.0000  0.0206  -1.4939   0.0000   0.0000   0.0000   0.2713
 -18.500  -0.5893   0.22682   0.22161   0.0158  1.0000  0.0216  -1.5008   0.0000   0.0000   0.0000   0.2662
 -18.000  -0.5724   0.22091   0.21572   0.0116  1.0000  0.0221  -1.5436   0.0000   0.0000   0.0000   0.2601
 -17.500  -0.5561   0.21451   0.20934   0.0080  1.0000  0.0224  -1.5504   0.0000   0.0000   0.0000   0.2544
 -17.000  -0.5388   0.20760   0.20243   0.0053  1.0000  0.0233  -1.4637   0.0000   0.0000   0.0000   0.2503
 -16.500  -0.5222   0.20124   0.19607   0.0022  1.0000  0.0245  -1.4276   0.0000   0.0000   0.0000   0.2448
 -16.000  -0.5063   0.19499   0.18983  -0.0014  1.0000  0.0259  -1.4301   0.0000   0.0000   0.0000   0.2383
 -15.500  -0.4919   0.18870   0.18358  -0.0049  1.0000  0.0266  -1.4738   0.0000   0.0000   0.0000   0.2312
 -15.000  -0.4755   0.18193   0.17680  -0.0070  1.0000  0.0282  -1.4216   0.0000   0.0000   0.0000   0.2267
 -14.500  -0.4608   0.17555   0.17044  -0.0100  1.0000  0.0299  -1.4507   0.0000   0.0000   0.0000   0.2201
 -14.000  -0.4497   0.16993   0.16485  -0.0139  1.0000  0.0308  -1.5652   0.0000   0.0000   0.0000   0.2111
 -13.500  -0.4340   0.16252   0.15747  -0.0155  1.0000  0.0317  -1.5214   0.0000   0.0000   0.0000   0.2065
 -13.000  -0.4202   0.15609   0.15106  -0.0176  1.0000  0.0334  -1.5070   0.0000   0.0000   0.0000   0.2005
 -12.500  -0.4093   0.14996   0.14495  -0.0205  1.0000  0.0352  -1.5658   0.0000   0.0000   0.0000   0.1924
 -12.000  -0.4005   0.14370   0.13875  -0.0234  1.0000  0.0359  -1.6373   0.0000   0.0000   0.0000   0.1842
 -11.500  -0.3855   0.13686   0.13193  -0.0242  1.0000  0.0379  -1.5552   0.0000   0.0000   0.0000   0.1801
 -11.000  -0.3790   0.13121   0.12634  -0.0274  1.0000  0.0405  -1.6368   0.0000   0.0000   0.0000   0.1710
 -10.500  -0.3664   0.12441   0.11958  -0.0281  1.0000  0.0425  -1.5793   0.0000   0.0000   0.0000   0.1667
 -10.000  -0.3588   0.11857   0.11379  -0.0301  1.0000  0.0454  -1.6020   0.0000   0.0000   0.0000   0.1598
  -9.500  -0.3583   0.11304   0.10838  -0.0331  1.0000  0.0465  -1.7096   0.0000   0.0000   0.0000   0.1519
  -9.000  -0.3446   0.10658   0.10196  -0.0321  1.0000  0.0490  -1.5934   0.0000   0.0000   0.0000   0.1511
  -8.500  -0.3474   0.10160   0.09711  -0.0341  1.0000  0.0516  -1.6987   0.0000   0.0000   0.0000   0.1467
  -8.000  -0.3466   0.09593   0.09156  -0.0335  1.0000  0.0528  -1.7265   0.0000   0.0000   0.0000   0.1486
  -7.500  -0.3490   0.09130   0.08706  -0.0313  1.0000  0.0554  -1.7171   0.0000   0.0000   0.0000   0.1560
  -7.000  -0.3736   0.08810   0.08406  -0.0284  1.0000  0.0574  -1.8233   0.0000   0.0000   0.0000   0.1704
  -6.000  -0.3887   0.07862   0.07480  -0.0261  1.0000  0.0624  -1.8709   0.0000   0.0000   0.0000   0.1802
  -5.500  -0.3774   0.07211   0.06832  -0.0307  0.9982  0.0668  -1.9015   0.0000   0.0000   0.0000   0.1664
  -5.000  -0.3043   0.06127   0.05726  -0.0492  0.9865  0.0755  -1.8793   0.0000   0.0000   0.0000   0.0857
  -4.500  -0.2159   0.04565   0.04097  -0.0704  0.9742  0.0591  -2.1469   0.0000   0.0000   0.0000  -0.0800
  -4.000  -0.1308   0.03065   0.02455  -0.0829  0.9648  0.0444  -2.5200   0.0000   0.0000   0.0000  -0.3912
  -3.500  -0.0523   0.02372   0.01619  -0.0885  0.9553  0.0478  -2.4525   0.0000   0.0000   0.0000  -1.4598
  -3.000   0.0223   0.02036   0.01205  -0.0918  0.9442  0.0559  -2.1576   0.0000   0.0000   0.0000   4.4129
  -2.500   0.0944   0.01826   0.00960  -0.0944  0.9317  0.0716  -1.8404   0.0000   0.0000   0.0000   1.2580
  -2.000   0.1674   0.01671   0.00810  -0.0974  0.9191  0.1015  -1.4874   0.0000   0.0000   0.0000   0.8354
  -1.000   0.3084   0.01415   0.00640  -0.1024  0.8916  0.3369  -0.8407   0.0000   0.0000   0.0000   0.5829
  -0.500   0.3855   0.01215   0.00583  -0.1052  0.8776  1.0000  -0.5696   0.0000   0.0000   0.0000   0.5230
   0.000   0.4477   0.01203   0.00537  -0.1055  0.8557  1.0000  -0.6115   0.0000   0.0000   0.0000   0.4852
   0.500   0.5081   0.01195   0.00504  -0.1054  0.8319  1.0000  -0.6545   0.0000   0.0000   0.0000   0.4565
   1.000   0.5672   0.01193   0.00483  -0.1051  0.8061  1.0000  -0.6991   0.0000   0.0000   0.0000   0.4339
   1.500   0.6246   0.01200   0.00474  -0.1045  0.7784  1.0000  -0.7452   0.0000   0.0000   0.0000   0.4154
   2.000   0.6808   0.01217   0.00477  -0.1036  0.7496  1.0000  -0.7936   0.0000   0.0000   0.0000   0.4000
   2.500   0.7358   0.01244   0.00495  -0.1027  0.7205  1.0000  -0.8453   0.0000   0.0000   0.0000   0.3869
   3.000   0.7899   0.01280   0.00525  -0.1016  0.6919  1.0000  -0.9089   0.0000   0.0000   0.0000   0.3756
   3.500   0.8433   0.01325   0.00570  -0.1005  0.6643  1.0000  -1.1371   0.0000   0.0000   0.0000   0.3657
   4.000   0.8962   0.01376   0.00626  -0.0993  0.6378  1.0000  -1.4149   0.0000   0.0000   0.0000   0.3568
   4.500   0.9488   0.01432   0.00690  -0.0980  0.6116  1.0000  -1.7253   0.0000   0.0000   0.0000   0.3488
   5.000   0.9985   0.01483   0.00753  -0.0960  0.5772  1.0000  -2.0993   0.0000   0.0000   0.0000   0.3411
   5.500   1.0400   0.01519   0.00777  -0.0920  0.5106  1.0000  -2.5037   0.0000   0.0000   0.0000   0.3329
   6.000   1.0801   0.01587   0.00846  -0.0882  0.4386  1.0000  -2.9524   0.0000   0.0000   0.0000   0.3254
   6.500   1.1004   0.01797   0.00963  -0.0817  0.2326  1.0000  -3.3155   0.0000   0.0000   0.0000   0.3175
   7.000   1.1066   0.02246   0.01292  -0.0745  0.0729  1.0000  -3.5526   0.0000   0.0000   0.0000   0.3100
   7.500   1.1268   0.02534   0.01585  -0.0690  0.0536  1.0000  -3.8570   0.0000   0.0000   0.0000   0.3033
   8.000   1.1439   0.02840   0.01897  -0.0631  0.0453  1.0000  -4.1350   0.0000   0.0000   0.0000   0.2966
   8.500   1.1712   0.03168   0.02239  -0.0587  0.0381  1.0000  -4.4854   0.0000   0.0000   0.0000   0.2910
   9.000   1.2106   0.03554   0.02644  -0.0563  0.0323  1.0000  -4.9146   0.0000   0.0000   0.0000   0.2867
   9.500   1.2578   0.04101   0.03243  -0.0548  0.0289  1.0000  -5.2708   0.0000   0.0000   0.0000   0.2831
  10.000   1.2868   0.04671   0.03869  -0.0516  0.0270  1.0000  -5.5563   0.0000   0.0000   0.0000   0.2790
  10.500   1.2836   0.05260   0.04534  -0.0452  0.0254  1.0000  -5.6369   0.0000   0.0000   0.0000   0.2735
  11.000   1.2637   0.05911   0.05256  -0.0389  0.0247  1.0000  -5.6087   0.0000   0.0000   0.0000   0.2685
  11.500   1.2353   0.06689   0.06095  -0.0352  0.0247  1.0000  -5.5270   0.0000   0.0000   0.0000   0.2655
  12.000   1.2003   0.07622   0.07080  -0.0347  0.0248  1.0000  -5.4004   0.0000   0.0000   0.0000   0.2652
  12.500   1.1618   0.08750   0.08251  -0.0379  0.0251  1.0000  -5.2330   0.0000   0.0000   0.0000   0.2682
  13.000   1.1225   0.10091   0.09627  -0.0446  0.0255  1.0000  -5.0230   0.0000   0.0000   0.0000   0.2747
  13.500   1.0864   0.11625   0.11186  -0.0540  0.0259  1.0000  -4.7717   0.0000   0.0000   0.0000   0.2841
  14.000   1.0609   0.13192   0.12765  -0.0636  0.0263  1.0000  -4.5268   0.0000   0.0000   0.0000   0.2938
  14.500   1.0161   0.16219   0.15795  -0.0822  0.0303  1.0000  -3.4234   0.0000   0.0000   0.0000   0.3153


