xflr5 v6.61

 Calculated polar for: NACA4412_7_00

 1 1 Reynolds number fixed          Mach number fixed         

 xtrf =   1.000 (top)        1.000 (bottom)
 Mach =   0.200     Re =     0.090 e 6     Ncrit =   9.000

  alpha     CL        CD       CDp       Cm    Top Xtr Bot Xtr   Cpmin    Chinge    XCp    
 ------- -------- --------- --------- -------- ------- ------- -------- --------- ---------
 -16.500  -0.5419   0.20494   0.19894   0.0062  1.0000  0.0352  -1.4651   0.0000   0.0000   0.0000   0.2537
 -16.000  -0.5263   0.19860   0.19263   0.0027  1.0000  0.0361  -1.4715   0.0000   0.0000   0.0000   0.2478
 -15.500  -0.5095   0.19174   0.18578   0.0002  1.0000  0.0385  -1.4128   0.0000   0.0000   0.0000   0.2432
 -15.000  -0.4955   0.18619   0.18024  -0.0035  1.0000  0.0405  -1.4362   0.0000   0.0000   0.0000   0.2360
 -14.500  -0.4803   0.17918   0.17326  -0.0061  1.0000  0.0416  -1.4059   0.0000   0.0000   0.0000   0.2305
 -14.000  -0.4649   0.17252   0.16661  -0.0085  1.0000  0.0440  -1.3770   0.0000   0.0000   0.0000   0.2253
 -13.500  -0.4538   0.16724   0.16137  -0.0121  1.0000  0.0460  -1.4519   0.0000   0.0000   0.0000   0.2171
 -13.000  -0.4386   0.15976   0.15393  -0.0139  1.0000  0.0476  -1.4353   0.0000   0.0000   0.0000   0.2123
 -12.500  -0.4255   0.15344   0.14762  -0.0162  1.0000  0.0505  -1.4436   0.0000   0.0000   0.0000   0.2061
 -12.000  -0.4214   0.14937   0.14362  -0.0204  1.0000  0.0520  -1.5628   0.0000   0.0000   0.0000   0.1960
 -11.500  -0.4017   0.14064   0.13491  -0.0205  1.0000  0.0552  -1.4670   0.0000   0.0000   0.0000   0.1935
  -9.750  -0.3674   0.11925   0.11372  -0.0271  1.0000  0.0668  -1.4949   0.0000   0.0000   0.0000   0.1714
  -9.500  -0.3631   0.11641   0.11091  -0.0278  1.0000  0.0691  -1.4938   0.0000   0.0000   0.0000   0.1686
  -9.250  -0.3643   0.11445   0.10902  -0.0297  1.0000  0.0707  -1.5473   0.0000   0.0000   0.0000   0.1641
  -9.000  -0.3619   0.11142   0.10605  -0.0304  1.0000  0.0717  -1.5599   0.0000   0.0000   0.0000   0.1616
  -8.750  -0.3527   0.10769   0.10234  -0.0296  1.0000  0.0741  -1.4958   0.0000   0.0000   0.0000   0.1617
  -8.500  -0.3515   0.10522   0.09993  -0.0302  1.0000  0.0766  -1.5062   0.0000   0.0000   0.0000   0.1598
  -8.250  -0.3584   0.10385   0.09866  -0.0318  1.0000  0.0779  -1.5783   0.0000   0.0000   0.0000   0.1575
  -8.000  -0.3510   0.09998   0.09484  -0.0308  1.0000  0.0795  -1.5266   0.0000   0.0000   0.0000   0.1586
  -7.750  -0.2767   0.08556   0.08091  -0.0310  1.0000  0.0882  -1.2875   0.0000   0.0000   0.0000   0.1358
  -7.500  -0.3546   0.09557   0.09058  -0.0300  1.0000  0.0844  -1.5480   0.0000   0.0000   0.0000   0.1622
  -7.250  -0.2959   0.08189   0.07742  -0.0292  1.0000  0.0924  -1.3651   0.0000   0.0000   0.0000   0.1496
  -7.000  -0.3646   0.09114   0.08633  -0.0277  1.0000  0.0869  -1.5900   0.0000   0.0000   0.0000   0.1711
  -6.750  -0.3027   0.07669   0.07237  -0.0250  1.0000  0.0973  -1.3525   0.0000   0.0000   0.0000   0.1661
  -6.500  -0.3716   0.08691   0.08226  -0.0280  1.0000  0.0922  -1.6401   0.0000   0.0000   0.0000   0.1724
  -6.250  -0.3343   0.07416   0.07003  -0.0221  1.0000  0.1002  -1.4452   0.0000   0.0000   0.0000   0.1829
  -6.000  -0.3716   0.08164   0.07711  -0.0262  1.0000  0.0977  -1.6329   0.0000   0.0000   0.0000   0.1773
  -5.750  -0.3412   0.06894   0.06493  -0.0190  1.0000  0.1057  -1.4348   0.0000   0.0000   0.0000   0.1937
  -5.500  -0.3696   0.07640   0.07196  -0.0272  1.0000  0.1048  -1.6551   0.0000   0.0000   0.0000   0.1747
  -5.000  -0.3594   0.07071   0.06631  -0.0295  1.0000  0.1140  -1.6657   0.0000   0.0000   0.0000   0.1664
  -4.750  -0.3493   0.06740   0.06297  -0.0326  1.0000  0.1191  -1.6869   0.0000   0.0000   0.0000   0.1550
  -4.500  -0.3337   0.06410   0.05959  -0.0369  1.0000  0.1267  -1.7070   0.0000   0.0000   0.0000   0.1378
  -4.250  -0.3255   0.06136   0.05688  -0.0353  1.0000  0.1322  -1.6508   0.0000   0.0000   0.0000   0.1402
  -4.000  -0.3036   0.05805   0.05339  -0.0403  1.0000  0.1436  -1.6575   0.0000   0.0000   0.0000   0.1158
  -3.750  -0.2923   0.05503   0.05041  -0.0393  1.0000  0.1493  -1.5996   0.0000   0.0000   0.0000   0.1141
  -3.500  -0.2688   0.05181   0.04703  -0.0431  1.0000  0.1647  -1.5742   0.0000   0.0000   0.0000   0.0879
  -3.250  -0.2533   0.04928   0.04449  -0.0429  1.0000  0.1787  -1.5020   0.0000   0.0000   0.0000   0.0790
  -3.000  -0.2309   0.04648   0.04159  -0.0449  1.0000  0.1972  -1.4433   0.0000   0.0000   0.0000   0.0538
  -2.500  -0.1099   0.03162   0.02467  -0.0623  1.0000  0.0915  -1.8899   0.0000   0.0000   0.0000  -0.3211
  -2.250  -0.0699   0.02851   0.02092  -0.0650  0.9981  0.0900  -1.8821   0.0000   0.0000   0.0000  -0.6861
  -2.000  -0.0190   0.02566   0.01727  -0.0691  0.9932  0.0906  -1.8387   0.0000   0.0000   0.0000  -3.4112
  -1.750   0.0293   0.02394   0.01502  -0.0727  0.9871  0.0993  -1.7091   0.0000   0.0000   0.0000   2.7443
  -1.500   0.0757   0.02273   0.01360  -0.0762  0.9800  0.1144  -1.5579   0.0000   0.0000   0.0000   1.2619
  -1.250   0.1211   0.02176   0.01255  -0.0795  0.9725  0.1382  -1.4045   0.0000   0.0000   0.0000   0.9092
  -1.000   0.1655   0.02097   0.01187  -0.0827  0.9642  0.1804  -1.2297   0.0000   0.0000   0.0000   0.7514
  -0.750   0.2078   0.02014   0.01139  -0.0855  0.9554  0.2626  -1.0743   0.0000   0.0000   0.0000   0.6625
  -0.500   0.2480   0.01757   0.01089  -0.0874  0.9481  1.0000  -0.9164   0.0000   0.0000   0.0000   0.6028
  -0.250   0.2926   0.01783   0.01066  -0.0905  0.9372  1.0000  -0.7394   0.0000   0.0000   0.0000   0.5594
   0.000   0.3359   0.01803   0.01057  -0.0935  0.9261  1.0000  -0.5783   0.0000   0.0000   0.0000   0.5281
   0.250   0.3782   0.01817   0.01049  -0.0962  0.9149  1.0000  -0.5374   0.0000   0.0000   0.0000   0.5039
   0.500   0.4199   0.01826   0.01043  -0.0987  0.9035  1.0000  -0.5635   0.0000   0.0000   0.0000   0.4844
   0.750   0.4609   0.01830   0.01036  -0.1010  0.8921  1.0000  -0.5901   0.0000   0.0000   0.0000   0.4683
   1.000   0.5014   0.01830   0.01027  -0.1032  0.8807  1.0000  -0.6172   0.0000   0.0000   0.0000   0.4545
   1.250   0.5395   0.01828   0.01020  -0.1047  0.8691  1.0000  -0.6438   0.0000   0.0000   0.0000   0.4427
   1.500   0.5763   0.01824   0.01012  -0.1059  0.8572  1.0000  -0.6706   0.0000   0.0000   0.0000   0.4321
   1.750   0.6118   0.01820   0.01007  -0.1068  0.8452  1.0000  -0.6978   0.0000   0.0000   0.0000   0.4227
   2.000   0.6461   0.01815   0.01003  -0.1074  0.8332  1.0000  -0.7252   0.0000   0.0000   0.0000   0.4142
   2.250   0.6796   0.01811   0.01000  -0.1077  0.8209  1.0000  -0.7533   0.0000   0.0000   0.0000   0.4064
   2.500   0.7122   0.01809   0.01002  -0.1079  0.8087  1.0000  -0.7823   0.0000   0.0000   0.0000   0.3992
   2.750   0.7441   0.01808   0.01005  -0.1080  0.7964  1.0000  -0.8125   0.0000   0.0000   0.0000   0.3926
   3.000   0.7755   0.01809   0.01009  -0.1079  0.7842  1.0000  -0.8910   0.0000   0.0000   0.0000   0.3864
   3.250   0.8069   0.01809   0.01018  -0.1078  0.7721  1.0000  -1.0240   0.0000   0.0000   0.0000   0.3806
   3.500   0.8365   0.01819   0.01034  -0.1074  0.7593  1.0000  -1.1703   0.0000   0.0000   0.0000   0.3752
   3.750   0.8641   0.01839   0.01063  -0.1067  0.7457  1.0000  -1.3237   0.0000   0.0000   0.0000   0.3701
   4.000   0.8914   0.01862   0.01095  -0.1060  0.7321  1.0000  -1.4964   0.0000   0.0000   0.0000   0.3653
   4.250   0.9184   0.01887   0.01135  -0.1053  0.7183  1.0000  -1.6826   0.0000   0.0000   0.0000   0.3608
   4.500   0.9454   0.01913   0.01174  -0.1045  0.7043  1.0000  -1.8959   0.0000   0.0000   0.0000   0.3564
   4.750   0.9724   0.01938   0.01213  -0.1036  0.6898  1.0000  -2.1168   0.0000   0.0000   0.0000   0.3522
   5.000   0.9983   0.01935   0.01225  -0.1019  0.6693  1.0000  -2.3438   0.0000   0.0000   0.0000   0.3475
   5.250   1.0236   0.01836   0.01116  -0.0983  0.6285  1.0000  -2.5970   0.0000   0.0000   0.0000   0.3411
   5.500   1.0442   0.01795   0.01069  -0.0949  0.5858  1.0000  -2.8518   0.0000   0.0000   0.0000   0.3356
   5.750   1.0623   0.01790   0.01067  -0.0917  0.5412  1.0000  -3.0866   0.0000   0.0000   0.0000   0.3307
   6.000   1.0740   0.01801   0.01073  -0.0872  0.4661  1.0000  -3.2746   0.0000   0.0000   0.0000   0.3253
   6.250   1.0608   0.02046   0.01150  -0.0799  0.1934  1.0000  -3.2978   0.0000   0.0000   0.0000   0.3191
   6.500   1.0589   0.02370   0.01384  -0.0756  0.1111  1.0000  -3.3332   0.0000   0.0000   0.0000   0.3149
   6.750   1.0663   0.02576   0.01575  -0.0722  0.0924  1.0000  -3.4243   0.0000   0.0000   0.0000   0.3110
   7.000   1.0779   0.02760   0.01753  -0.0694  0.0799  1.0000  -3.5366   0.0000   0.0000   0.0000   0.3074
   7.250   1.0961   0.02968   0.01949  -0.0674  0.0722  1.0000  -3.6593   0.0000   0.0000   0.0000   0.3043
   7.500   1.1226   0.03208   0.02176  -0.0668  0.0642  1.0000  -3.8529   0.0000   0.0000   0.0000   0.3019
   7.750   1.1550   0.03470   0.02459  -0.0664  0.0600  1.0000  -4.0321   0.0000   0.0000   0.0000   0.2997
   8.000   1.1845   0.03774   0.02782  -0.0660  0.0564  1.0000  -4.2023   0.0000   0.0000   0.0000   0.2976
   8.250   1.2088   0.04067   0.03105  -0.0650  0.0533  1.0000  -4.3520   0.0000   0.0000   0.0000   0.2953
   8.500   1.2311   0.04427   0.03508  -0.0635  0.0529  1.0000  -4.4406   0.0000   0.0000   0.0000   0.2929
   8.750   1.2448   0.04807   0.03952  -0.0609  0.0539  1.0000  -4.4455   0.0000   0.0000   0.0000   0.2899
   9.000   1.2532   0.05224   0.04428  -0.0581  0.0556  1.0000  -4.4274   0.0000   0.0000   0.0000   0.2871
   9.250   1.2597   0.05648   0.04894  -0.0555  0.0567  1.0000  -4.4329   0.0000   0.0000   0.0000   0.2846
   9.500   1.2632   0.06075   0.05357  -0.0531  0.0574  1.0000  -4.4415   0.0000   0.0000   0.0000   0.2823
   9.750   1.2663   0.06529   0.05839  -0.0510  0.0579  1.0000  -4.4571   0.0000   0.0000   0.0000   0.2803
  10.000   1.2375   0.06915   0.06300  -0.0459  0.0622  1.0000  -4.2452   0.0000   0.0000   0.0000   0.2770
  10.500   1.1952   0.07758   0.07204  -0.0400  0.0679  1.0000  -4.0414   0.0000   0.0000   0.0000   0.2729
  10.750   1.1845   0.08256   0.07715  -0.0391  0.0702  1.0000  -4.0027   0.0000   0.0000   0.0000   0.2721
  11.000   1.1646   0.08897   0.08383  -0.0391  0.0787  1.0000  -3.8400   0.0000   0.0000   0.0000   0.2725
  11.250   1.0079   0.08573   0.08095  -0.0309  0.0684  1.0000  -3.5645   0.0000   0.0000   0.0000   0.2697
  11.500   1.0729   0.10602   0.10129  -0.0502  0.0876  1.0000  -3.3468   0.0000   0.0000   0.0000   0.2853
  11.750   0.9458   0.09945   0.09488  -0.0370  0.0695  1.0000  -3.3060   0.0000   0.0000   0.0000   0.2777


