xflr5 v6.61

 Calculated polar for: NACA4412_9_00

 1 1 Reynolds number fixed          Mach number fixed         

 xtrf =   1.000 (top)        1.000 (bottom)
 Mach =   0.200     Re =     0.080 e 6     Ncrit =   7.000

  alpha     CL        CD       CDp       Cm    Top Xtr Bot Xtr   Cpmin    Chinge    XCp    
 ------- -------- --------- --------- -------- ------- ------- -------- --------- ---------
 -25.500  -0.7995   0.30778   0.30128   0.0656  1.0000  0.0230  -1.6447   0.0000   0.0000   0.0000   0.3105
 -25.000  -0.7829   0.30211   0.29559   0.0612  1.0000  0.0243  -1.6108   0.0000   0.0000   0.0000   0.3074
 -24.500  -0.7661   0.29649   0.28996   0.0566  1.0000  0.0256  -1.5980   0.0000   0.0000   0.0000   0.3038
 -24.000  -0.7492   0.29126   0.28472   0.0517  1.0000  0.0262  -1.6087   0.0000   0.0000   0.0000   0.2996
 -23.500  -0.7325   0.28566   0.27913   0.0471  1.0000  0.0265  -1.6038   0.0000   0.0000   0.0000   0.2955
 -23.000  -0.7152   0.27892   0.27237   0.0434  1.0000  0.0275  -1.5288   0.0000   0.0000   0.0000   0.2926
 -22.500  -0.6980   0.27303   0.26646   0.0393  1.0000  0.0287  -1.5170   0.0000   0.0000   0.0000   0.2888
 -22.000  -0.6806   0.26721   0.26064   0.0350  1.0000  0.0299  -1.5229   0.0000   0.0000   0.0000   0.2846
 -21.500  -0.6637   0.26191   0.25534   0.0304  1.0000  0.0307  -1.5569   0.0000   0.0000   0.0000   0.2795
 -21.000  -0.6465   0.25562   0.24906   0.0264  1.0000  0.0312  -1.5521   0.0000   0.0000   0.0000   0.2750
 -20.500  -0.6286   0.24905   0.24248   0.0230  1.0000  0.0326  -1.4967   0.0000   0.0000   0.0000   0.2713
 -20.000  -0.6112   0.24312   0.23655   0.0191  1.0000  0.0346  -1.4834   0.0000   0.0000   0.0000   0.2664
 -19.500  -0.5956   0.23841   0.23185   0.0143  1.0000  0.0356  -1.5288   0.0000   0.0000   0.0000   0.2597
 -19.000  -0.5770   0.23079   0.22424   0.0116  1.0000  0.0368  -1.4536   0.0000   0.0000   0.0000   0.2561
 -18.500  -0.5597   0.22458   0.21803   0.0082  1.0000  0.0385  -1.4143   0.0000   0.0000   0.0000   0.2511
 -18.000  -0.5435   0.21884   0.21230   0.0043  1.0000  0.0403  -1.4456   0.0000   0.0000   0.0000   0.2448
 -17.500  -0.5284   0.21314   0.20664   0.0004  1.0000  0.0410  -1.4974   0.0000   0.0000   0.0000   0.2379
 -17.000  -0.5101   0.20595   0.19944  -0.0019  1.0000  0.0429  -1.4482   0.0000   0.0000   0.0000   0.2337
 -16.500  -0.4943   0.19991   0.19342  -0.0052  1.0000  0.0452  -1.4631   0.0000   0.0000   0.0000   0.2272
 -16.000  -0.4812   0.19440   0.18795  -0.0091  1.0000  0.0465  -1.5221   0.0000   0.0000   0.0000   0.2192
 -15.500  -0.4632   0.18727   0.18082  -0.0110  1.0000  0.0496  -1.4612   0.0000   0.0000   0.0000   0.2146
 -15.000  -0.4525   0.18228   0.17587  -0.0149  1.0000  0.0518  -1.5267   0.0000   0.0000   0.0000   0.2058
 -14.500  -0.4352   0.17475   0.16836  -0.0166  1.0000  0.0536  -1.4765   0.0000   0.0000   0.0000   0.2007
 -14.000  -0.4216   0.16861   0.16225  -0.0191  1.0000  0.0566  -1.4699   0.0000   0.0000   0.0000   0.1939
 -13.500  -0.4155   0.16377   0.15748  -0.0229  1.0000  0.0582  -1.5487   0.0000   0.0000   0.0000   0.1844
 -13.000  -0.3964   0.15591   0.14963  -0.0236  1.0000  0.0612  -1.4540   0.0000   0.0000   0.0000   0.1802
 -12.500  -0.3902   0.15071   0.14447  -0.0268  1.0000  0.0642  -1.5030   0.0000   0.0000   0.0000   0.1714
 -12.000  -0.3747   0.14353   0.13734  -0.0276  1.0000  0.0676  -1.4661   0.0000   0.0000   0.0000   0.1665
 -11.500  -0.3756   0.13921   0.13311  -0.0313  1.0000  0.0711  -1.5776   0.0000   0.0000   0.0000   0.1574
 -11.000  -0.3564   0.13144   0.12537  -0.0310  1.0000  0.0755  -1.5006   0.0000   0.0000   0.0000   0.1538
 -10.500  -0.3624   0.12731   0.12136  -0.0348  1.0000  0.0781  -1.6288   0.0000   0.0000   0.0000   0.1456
 -10.000  -0.3424   0.11958   0.11366  -0.0336  1.0000  0.0826  -1.5329   0.0000   0.0000   0.0000   0.1435
  -9.500  -0.3511   0.11526   0.10950  -0.0366  1.0000  0.0855  -1.6502   0.0000   0.0000   0.0000   0.1382
  -9.000  -0.3358   0.10850   0.10278  -0.0351  1.0000  0.0910  -1.5649   0.0000   0.0000   0.0000   0.1381
  -8.500  -0.3353   0.10313   0.09756  -0.0349  1.0000  0.0957  -1.5711   0.0000   0.0000   0.0000   0.1390
  -8.000  -0.3554   0.09978   0.09442  -0.0352  1.0000  0.1006  -1.6706   0.0000   0.0000   0.0000   0.1452
  -7.500  -0.3506   0.09420   0.08896  -0.0316  1.0000  0.1059  -1.5955   0.0000   0.0000   0.0000   0.1545
  -7.000  -0.3902   0.09185   0.08689  -0.0301  1.0000  0.1088  -1.7391   0.0000   0.0000   0.0000   0.1686
  -6.500  -0.3888   0.08646   0.08161  -0.0254  1.0000  0.1126  -1.6764   0.0000   0.0000   0.0000   0.1809
  -6.000  -0.4058   0.08145   0.07673  -0.0291  1.0000  0.1178  -1.7962   0.0000   0.0000   0.0000   0.1751
  -5.500  -0.4024   0.07622   0.07154  -0.0261  1.0000  0.1232  -1.7498   0.0000   0.0000   0.0000   0.1822
  -4.500  -0.3033   0.04795   0.04213  -0.0570  0.9886  0.0718  -2.3137   0.0000   0.0000   0.0000   0.0578
  -4.000  -0.2220   0.03687   0.02989  -0.0682  0.9770  0.0681  -2.3460   0.0000   0.0000   0.0000  -0.0630
  -3.500  -0.1395   0.03015   0.02184  -0.0755  0.9653  0.0747  -2.2569   0.0000   0.0000   0.0000  -0.3001
  -3.000  -0.0607   0.02638   0.01712  -0.0801  0.9515  0.0871  -2.0286   0.0000   0.0000   0.0000  -1.0873
  -2.500   0.0181   0.02413   0.01439  -0.0843  0.9371  0.1093  -1.7680   0.0000   0.0000   0.0000   4.9631
  -2.000   0.0916   0.02254   0.01281  -0.0875  0.9207  0.1454  -1.4687   0.0000   0.0000   0.0000   1.2131
  -1.500   0.1667   0.02123   0.01171  -0.0908  0.9046  0.2157  -1.1819   0.0000   0.0000   0.0000   0.7980
  -1.000   0.2435   0.01974   0.01087  -0.0945  0.8893  0.3776  -0.8957   0.0000   0.0000   0.0000   0.6396
  -0.500   0.3230   0.01782   0.01026  -0.0974  0.8724  1.0000  -0.6369   0.0000   0.0000   0.0000   0.5519
   0.000   0.3987   0.01768   0.00965  -0.1003  0.8544  1.0000  -0.6192   0.0000   0.0000   0.0000   0.5010
   0.500   0.4626   0.01768   0.00935  -0.1009  0.8318  1.0000  -0.6642   0.0000   0.0000   0.0000   0.4671
   1.000   0.5287   0.01760   0.00905  -0.1018  0.8105  1.0000  -0.7131   0.0000   0.0000   0.0000   0.4410
   1.500   0.5929   0.01755   0.00883  -0.1023  0.7885  1.0000  -0.7642   0.0000   0.0000   0.0000   0.4205
   2.000   0.6509   0.01772   0.00890  -0.1018  0.7640  1.0000  -0.8139   0.0000   0.0000   0.0000   0.4039
   2.500   0.7099   0.01791   0.00903  -0.1014  0.7408  1.0000  -0.8685   0.0000   0.0000   0.0000   0.3899
   3.000   0.7685   0.01816   0.00924  -0.1009  0.7179  1.0000  -0.9283   0.0000   0.0000   0.0000   0.3779
   3.500   0.8214   0.01868   0.00980  -0.0997  0.6935  1.0000  -0.9932   0.0000   0.0000   0.0000   0.3675
   4.000   0.8774   0.01915   0.01030  -0.0988  0.6711  1.0000  -1.1798   0.0000   0.0000   0.0000   0.3583
   4.500   0.9298   0.01977   0.01107  -0.0975  0.6474  1.0000  -1.4110   0.0000   0.0000   0.0000   0.3500
   5.000   0.9810   0.02048   0.01193  -0.0959  0.6232  1.0000  -1.6713   0.0000   0.0000   0.0000   0.3424
   5.500   1.0339   0.02108   0.01272  -0.0943  0.5982  1.0000  -1.9771   0.0000   0.0000   0.0000   0.3353
   6.000   1.0817   0.02155   0.01340  -0.0915  0.5644  1.0000  -2.2859   0.0000   0.0000   0.0000   0.3282
   6.500   1.1260   0.02144   0.01330  -0.0873  0.5139  1.0000  -2.6541   0.0000   0.0000   0.0000   0.3204
   7.000   1.1605   0.02179   0.01379  -0.0820  0.4566  1.0000  -3.0178   0.0000   0.0000   0.0000   0.3129
   7.500   1.1838   0.02257   0.01466  -0.0754  0.3734  1.0000  -3.3371   0.0000   0.0000   0.0000   0.3052
   8.000   1.1787   0.02555   0.01663  -0.0658  0.2007  1.0000  -3.5250   0.0000   0.0000   0.0000   0.2967
   8.500   1.1647   0.03019   0.02050  -0.0568  0.1192  1.0000  -3.6553   0.0000   0.0000   0.0000   0.2890
   9.000   1.1636   0.03432   0.02448  -0.0502  0.0932  1.0000  -3.8376   0.0000   0.0000   0.0000   0.2827
   9.500   1.1751   0.03818   0.02833  -0.0453  0.0772  1.0000  -4.0710   0.0000   0.0000   0.0000   0.2774
  10.000   1.2065   0.04186   0.03200  -0.0419  0.0652  1.0000  -4.3818   0.0000   0.0000   0.0000   0.2729
  10.500   1.2550   0.04629   0.03669  -0.0401  0.0560  1.0000  -4.7238   0.0000   0.0000   0.0000   0.2694
  11.000   1.2881   0.05169   0.04256  -0.0377  0.0499  1.0000  -5.0162   0.0000   0.0000   0.0000   0.2661
  11.500   1.3147   0.05791   0.04916  -0.0354  0.0462  1.0000  -5.3084   0.0000   0.0000   0.0000   0.2630
  12.000   1.2953   0.06493   0.05701  -0.0306  0.0451  1.0000  -5.2999   0.0000   0.0000   0.0000   0.2590
  12.500   1.2652   0.07301   0.06575  -0.0280  0.0443  1.0000  -5.2455   0.0000   0.0000   0.0000   0.2568
  13.000   1.2281   0.08267   0.07599  -0.0283  0.0440  1.0000  -5.1403   0.0000   0.0000   0.0000   0.2569
  13.500   1.1848   0.09456   0.08837  -0.0321  0.0442  1.0000  -4.9644   0.0000   0.0000   0.0000   0.2602
  14.000   1.1392   0.10889   0.10310  -0.0394  0.0450  1.0000  -4.7219   0.0000   0.0000   0.0000   0.2670
  14.500   1.0989   0.12509   0.11954  -0.0491  0.0459  1.0000  -4.4431   0.0000   0.0000   0.0000   0.2766
  15.500   1.0044   0.17877   0.17322  -0.0835  0.0558  1.0000  -2.8897   0.0000   0.0000   0.0000   0.3154
  16.000   1.0100   0.19003   0.18446  -0.0887  0.0576  1.0000  -2.7873   0.0000   0.0000   0.0000   0.3195
  18.500   0.7773   0.21596   0.21115  -0.0873  0.0927  1.0000  -1.4460   0.0000   0.0000   0.0000   0.3451
  19.000   0.7769   0.22243   0.21765  -0.0911  0.0872  1.0000  -1.3748   0.0000   0.0000   0.0000   0.3495
  19.500   0.7818   0.22971   0.22497  -0.0941  0.0837  1.0000  -1.3348   0.0000   0.0000   0.0000   0.3519
  20.000   0.7948   0.23738   0.23269  -0.0956  0.0780  1.0000  -1.3776   0.0000   0.0000   0.0000   0.3510


