xflr5 v6.61

 Calculated polar for: NACA4412_7_00

 1 1 Reynolds number fixed          Mach number fixed         

 xtrf =   1.000 (top)        1.000 (bottom)
 Mach =   0.200     Re =     0.060 e 6     Ncrit =   9.000

  alpha     CL        CD       CDp       Cm    Top Xtr Bot Xtr   Cpmin    Chinge    XCp    
 ------- -------- --------- --------- -------- ------- ------- -------- --------- ---------
 -19.000  -0.4224   0.20047   0.19412   0.0006  1.0000  0.0486  -0.9738   0.0000   0.0000   0.0000   0.2479
 -18.500  -0.4125   0.19601   0.18964  -0.0021  1.0000  0.0512  -0.9930   0.0000   0.0000   0.0000   0.2413
 -18.000  -0.4034   0.19170   0.18530  -0.0049  1.0000  0.0524  -1.0196   0.0000   0.0000   0.0000   0.2344
 -17.500  -0.3910   0.18590   0.17948  -0.0069  1.0000  0.0552  -0.9931   0.0000   0.0000   0.0000   0.2289
 -17.000  -0.3826   0.18211   0.17568  -0.0097  1.0000  0.0576  -1.0165   0.0000   0.0000   0.0000   0.2215
 -16.500  -0.3719   0.17691   0.17048  -0.0118  1.0000  0.0593  -1.0084   0.0000   0.0000   0.0000   0.2151
 -16.000  -0.3615   0.17217   0.16571  -0.0139  1.0000  0.0626  -0.9937   0.0000   0.0000   0.0000   0.2085
 -15.500  -0.3581   0.17018   0.16372  -0.0167  1.0000  0.0644  -1.0410   0.0000   0.0000   0.0000   0.2002
 -15.000  -0.3433   0.16323   0.15677  -0.0179  1.0000  0.0679  -1.0037   0.0000   0.0000   0.0000   0.1947
 -14.500  -0.3407   0.16104   0.15458  -0.0204  1.0000  0.0709  -1.0697   0.0000   0.0000   0.0000   0.1872
 -14.000  -0.3284   0.15501   0.14854  -0.0214  1.0000  0.0751  -1.0541   0.0000   0.0000   0.0000   0.1816
 -13.500  -0.3311   0.15384   0.14738  -0.0237  1.0000  0.0780  -1.1347   0.0000   0.0000   0.0000   0.1753
 -13.000  -0.3166   0.14685   0.14040  -0.0244  1.0000  0.0827  -1.1022   0.0000   0.0000   0.0000   0.1697
 -12.500  -0.3196   0.14473   0.13832  -0.0269  1.0000  0.0854  -1.1844   0.0000   0.0000   0.0000   0.1627
 -12.000  -0.3035   0.13707   0.13068  -0.0272  1.0000  0.0910  -1.1368   0.0000   0.0000   0.0000   0.1571
 -11.500  -0.2985   0.13188   0.12553  -0.0286  1.0000  0.0945  -1.1594   0.0000   0.0000   0.0000   0.1510
 -11.000  -0.2948   0.12700   0.12070  -0.0299  1.0000  0.1002  -1.1779   0.0000   0.0000   0.0000   0.1457
 -10.500  -0.2852   0.12044   0.11419  -0.0302  1.0000  0.1053  -1.1558   0.0000   0.0000   0.0000   0.1411
 -10.000  -0.2831   0.11498   0.10881  -0.0311  1.0000  0.1108  -1.1724   0.0000   0.0000   0.0000   0.1373
  -9.750  -0.3722   0.12255   0.11585  -0.0258  1.0000  0.1049  -1.4313   0.0000   0.0000   0.0000   0.1761
  -9.500  -0.2883   0.11076   0.10470  -0.0323  1.0000  0.1172  -1.2157   0.0000   0.0000   0.0000   0.1354
  -9.250  -0.3676   0.11721   0.11063  -0.0276  1.0000  0.1104  -1.4501   0.0000   0.0000   0.0000   0.1706
  -9.000  -0.2831   0.10446   0.09850  -0.0319  1.0000  0.1256  -1.1933   0.0000   0.0000   0.0000   0.1348
  -8.750  -0.3698   0.11336   0.10693  -0.0296  1.0000  0.1172  -1.4905   0.0000   0.0000   0.0000   0.1661
  -8.500  -0.2786   0.09817   0.09230  -0.0311  1.0000  0.1338  -1.1997   0.0000   0.0000   0.0000   0.1360
  -8.250  -0.3646   0.10765   0.10136  -0.0296  1.0000  0.1258  -1.4684   0.0000   0.0000   0.0000   0.1653
  -8.000  -0.2767   0.09212   0.08638  -0.0300  1.0000  0.1415  -1.2093   0.0000   0.0000   0.0000   0.1396
  -7.750  -0.3622   0.10221   0.09607  -0.0287  1.0000  0.1344  -1.4775   0.0000   0.0000   0.0000   0.1675
  -7.500  -0.2803   0.08666   0.08107  -0.0283  1.0000  0.1490  -1.2290   0.0000   0.0000   0.0000   0.1471
  -7.250  -0.3619   0.09691   0.09092  -0.0267  1.0000  0.1427  -1.4830   0.0000   0.0000   0.0000   0.1731
  -7.000  -0.3134   0.08467   0.07938  -0.0259  1.0000  0.1537  -1.3225   0.0000   0.0000   0.0000   0.1662
  -6.750  -0.3651   0.09198   0.08618  -0.0249  1.0000  0.1506  -1.4966   0.0000   0.0000   0.0000   0.1793
  -6.250  -0.3686   0.08719   0.08157  -0.0240  1.0000  0.1599  -1.5169   0.0000   0.0000   0.0000   0.1826
  -6.000  -0.3739   0.08523   0.07971  -0.0258  1.0000  0.1643  -1.5588   0.0000   0.0000   0.0000   0.1790
  -5.750  -0.3710   0.08247   0.07700  -0.0243  1.0000  0.1714  -1.5420   0.0000   0.0000   0.0000   0.1824
  -5.500  -0.3695   0.07962   0.07421  -0.0238  1.0000  0.1767  -1.5402   0.0000   0.0000   0.0000   0.1838
  -5.250  -0.3680   0.07720   0.07183  -0.0260  1.0000  0.1846  -1.5631   0.0000   0.0000   0.0000   0.1778
  -5.000  -0.3634   0.07458   0.06925  -0.0272  1.0000  0.1945  -1.5658   0.0000   0.0000   0.0000   0.1735
  -4.500  -0.3520   0.06875   0.06349  -0.0253  1.0000  0.2179  -1.5165   0.0000   0.0000   0.0000   0.1765
  -4.250  -0.3447   0.06596   0.06070  -0.0245  1.0000  0.2320  -1.4876   0.0000   0.0000   0.0000   0.1773
  -4.000  -0.3329   0.06313   0.05784  -0.0269  1.0000  0.2507  -1.4744   0.0000   0.0000   0.0000   0.1677
  -3.750  -0.3241   0.06021   0.05496  -0.0254  1.0000  0.2661  -1.4331   0.0000   0.0000   0.0000   0.1703
  -3.500  -0.3070   0.05778   0.05243  -0.0286  1.0000  0.2974  -1.4052   0.0000   0.0000   0.0000   0.1553
  -2.500  -0.1190   0.03602   0.02835  -0.0610  1.0000  0.1334  -1.7185   0.0000   0.0000   0.0000  -0.2665
  -2.250  -0.0849   0.03295   0.02474  -0.0631  1.0000  0.1298  -1.7109   0.0000   0.0000   0.0000  -0.4978
  -2.000  -0.0511   0.03034   0.02152  -0.0646  1.0000  0.1289  -1.6920   0.0000   0.0000   0.0000  -1.0213
  -1.750  -0.0203   0.02849   0.01908  -0.0654  1.0000  0.1341  -1.6410   0.0000   0.0000   0.0000  -2.9813
  -1.500   0.0071   0.02709   0.01737  -0.0656  1.0000  0.1424  -1.5572   0.0000   0.0000   0.0000   9.4854
  -1.250   0.0330   0.02607   0.01614  -0.0656  1.0000  0.1564  -1.4833   0.0000   0.0000   0.0000   2.2482
  -1.000   0.0581   0.02528   0.01515  -0.0656  1.0000  0.1753  -1.4006   0.0000   0.0000   0.0000   1.3825
  -0.750   0.0821   0.02468   0.01451  -0.0653  1.0000  0.2027  -1.3046   0.0000   0.0000   0.0000   1.0486
  -0.500   0.1079   0.02419   0.01406  -0.0654  1.0000  0.2473  -1.1937   0.0000   0.0000   0.0000   0.8576
  -0.250   0.1368   0.02351   0.01367  -0.0661  1.0000  0.3356  -1.0941   0.0000   0.0000   0.0000   0.7341
   0.000   0.1800   0.02140   0.01309  -0.0686  0.9916  1.0000  -0.9603   0.0000   0.0000   0.0000   0.6313
   0.250   0.2304   0.02233   0.01347  -0.0737  0.9781  1.0000  -0.7685   0.0000   0.0000   0.0000   0.5698
   0.500   0.2792   0.02319   0.01397  -0.0786  0.9646  1.0000  -0.5969   0.0000   0.0000   0.0000   0.5308
   0.750   0.3218   0.02392   0.01445  -0.0822  0.9498  1.0000  -0.4990   0.0000   0.0000   0.0000   0.5046
   1.000   0.3675   0.02463   0.01496  -0.0862  0.9362  1.0000  -0.5259   0.0000   0.0000   0.0000   0.4835
   1.250   0.4064   0.02526   0.01547  -0.0890  0.9215  1.0000  -0.5497   0.0000   0.0000   0.0000   0.4676
   1.500   0.4449   0.02586   0.01597  -0.0915  0.9071  1.0000  -0.5743   0.0000   0.0000   0.0000   0.4541
   1.750   0.4844   0.02642   0.01646  -0.0941  0.8934  1.0000  -0.6006   0.0000   0.0000   0.0000   0.4424
   2.000   0.5234   0.02694   0.01695  -0.0964  0.8802  1.0000  -0.6276   0.0000   0.0000   0.0000   0.4323
   2.250   0.5612   0.02742   0.01744  -0.0985  0.8671  1.0000  -0.6552   0.0000   0.0000   0.0000   0.4233
   2.500   0.5976   0.02789   0.01793  -0.1002  0.8542  1.0000  -0.6831   0.0000   0.0000   0.0000   0.4153
   2.750   0.6326   0.02836   0.01844  -0.1016  0.8413  1.0000  -0.7116   0.0000   0.0000   0.0000   0.4080
   3.000   0.6662   0.02882   0.01900  -0.1027  0.8285  1.0000  -0.7409   0.0000   0.0000   0.0000   0.4013
   3.250   0.6985   0.02931   0.01957  -0.1035  0.8156  1.0000  -0.7716   0.0000   0.0000   0.0000   0.3952
   3.500   0.7298   0.02981   0.02018  -0.1041  0.8028  1.0000  -0.8512   0.0000   0.0000   0.0000   0.3894
   3.750   0.7600   0.03033   0.02082  -0.1044  0.7900  1.0000  -0.9727   0.0000   0.0000   0.0000   0.3840
   4.000   0.7891   0.03086   0.02153  -0.1045  0.7772  1.0000  -1.1066   0.0000   0.0000   0.0000   0.3788
   4.250   0.8180   0.03139   0.02221  -0.1044  0.7644  1.0000  -1.2581   0.0000   0.0000   0.0000   0.3739
   4.500   0.8472   0.03188   0.02289  -0.1043  0.7515  1.0000  -1.4238   0.0000   0.0000   0.0000   0.3691
   4.750   0.8769   0.03230   0.02356  -0.1041  0.7384  1.0000  -1.6097   0.0000   0.0000   0.0000   0.3644
   5.000   0.9074   0.03263   0.02413  -0.1037  0.7250  1.0000  -1.8231   0.0000   0.0000   0.0000   0.3598
   5.250   0.9381   0.03286   0.02463  -0.1031  0.7109  1.0000  -2.0532   0.0000   0.0000   0.0000   0.3552
   5.500   0.9695   0.03289   0.02500  -0.1023  0.6953  1.0000  -2.2944   0.0000   0.0000   0.0000   0.3505
   6.000   1.0701   0.02396   0.01646  -0.0919  0.5900  1.0000  -3.1344   0.0000   0.0000   0.0000   0.3302
   6.250   1.0831   0.02277   0.01526  -0.0853  0.5164  1.0000  -3.3362   0.0000   0.0000   0.0000   0.3227
   6.500   1.0701   0.02338   0.01491  -0.0758  0.3130  1.0000  -3.3567   0.0000   0.0000   0.0000   0.3144
   6.750   1.0571   0.02729   0.01717  -0.0702  0.1691  1.0000  -3.3389   0.0000   0.0000   0.0000   0.3097
   7.000   1.0611   0.03008   0.01952  -0.0667  0.1352  1.0000  -3.3913   0.0000   0.0000   0.0000   0.3059
   7.250   1.0760   0.03242   0.02171  -0.0642  0.1151  1.0000  -3.4817   0.0000   0.0000   0.0000   0.3024
   7.500   1.1046   0.03495   0.02406  -0.0632  0.0995  1.0000  -3.6165   0.0000   0.0000   0.0000   0.2996
   7.750   1.1457   0.03805   0.02723  -0.0636  0.0898  1.0000  -3.8031   0.0000   0.0000   0.0000   0.2976
   8.000   1.1776   0.04130   0.03066  -0.0633  0.0826  1.0000  -3.9711   0.0000   0.0000   0.0000   0.2956
   8.250   1.2066   0.04491   0.03456  -0.0626  0.0793  1.0000  -4.1037   0.0000   0.0000   0.0000   0.2935
   8.500   1.2323   0.04914   0.03906  -0.0618  0.0780  1.0000  -4.2071   0.0000   0.0000   0.0000   0.2915
   8.750   1.2428   0.05276   0.04336  -0.0591  0.0773  1.0000  -4.2320   0.0000   0.0000   0.0000   0.2886
   9.000   1.2485   0.05654   0.04772  -0.0563  0.0766  1.0000  -4.2438   0.0000   0.0000   0.0000   0.2859
   9.250   1.2514   0.06058   0.05226  -0.0536  0.0765  1.0000  -4.2463   0.0000   0.0000   0.0000   0.2835
   9.500   1.2552   0.06509   0.05713  -0.0514  0.0775  1.0000  -4.2527   0.0000   0.0000   0.0000   0.2813
   9.750   1.2432   0.06911   0.06173  -0.0480  0.0796  1.0000  -4.1740   0.0000   0.0000   0.0000   0.2788
  10.000   1.2241   0.07340   0.06648  -0.0449  0.0818  1.0000  -4.0803   0.0000   0.0000   0.0000   0.2767
  10.250   1.2086   0.07767   0.07100  -0.0425  0.0835  1.0000  -4.0259   0.0000   0.0000   0.0000   0.2749
  10.500   1.2046   0.08257   0.07606  -0.0412  0.0858  1.0000  -4.0092   0.0000   0.0000   0.0000   0.2737
  10.750   1.1666   0.08650   0.08027  -0.0397  0.0867  1.0000  -3.8777   0.0000   0.0000   0.0000   0.2733
  11.000   1.1313   0.09198   0.08595  -0.0410  0.0877  1.0000  -3.7416   0.0000   0.0000   0.0000   0.2752
  11.250   1.0983   0.09899   0.09310  -0.0447  0.0893  1.0000  -3.5890   0.0000   0.0000   0.0000   0.2794
  11.500   1.0794   0.10631   0.10045  -0.0483  0.0917  1.0000  -3.4779   0.0000   0.0000   0.0000   0.2833
  11.750   1.0416   0.11851   0.11270  -0.0578  0.0993  1.0000  -3.1683   0.0000   0.0000   0.0000   0.2940
  12.000   1.0123   0.13357   0.12769  -0.0689  0.1158  1.0000  -2.7874   0.0000   0.0000   0.0000   0.3067
  12.500   0.9721   0.16590   0.15986  -0.0937  0.2381  1.0000  -2.0343   0.0000   0.0000   0.0000   0.3354
  13.000   0.9716   0.17466   0.16859  -0.0972  0.2273  1.0000  -1.9931   0.0000   0.0000   0.0000   0.3385
  13.500   0.9824   0.18405   0.17796  -0.0996  0.2152  1.0000  -1.9916   0.0000   0.0000   0.0000   0.3392
  14.000   0.9759   0.19031   0.18417  -0.1042  0.2001  1.0000  -1.9260   0.0000   0.0000   0.0000   0.3440
  14.500   1.0054   0.20090   0.19483  -0.1041  0.1835  1.0000  -2.0014   0.0000   0.0000   0.0000   0.3401
  15.000   1.0051   0.20726   0.20113  -0.1090  0.1724  1.0000  -1.9420   0.0000   0.0000   0.0000   0.3443
  15.500   1.0117   0.21421   0.20804  -0.1134  0.1607  1.0000  -1.9026   0.0000   0.0000   0.0000   0.3473
  16.000   1.0234   0.22171   0.21553  -0.1172  0.1496  1.0000  -1.9142   0.0000   0.0000   0.0000   0.3490
  16.500   1.0375   0.22929   0.22313  -0.1207  0.1382  1.0000  -1.9455   0.0000   0.0000   0.0000   0.3501
  17.000   1.0580   0.23822   0.23209  -0.1227  0.1266  1.0000  -2.0228   0.0000   0.0000   0.0000   0.3491
  17.500   1.0722   0.24590   0.23977  -0.1267  0.1178  1.0000  -2.0410   0.0000   0.0000   0.0000   0.3504
  18.000   1.0823   0.25208   0.24592  -0.1321  0.1103  1.0000  -2.0144   0.0000   0.0000   0.0000   0.3535
  18.500   1.0951   0.25894   0.25276  -0.1371  0.1037  1.0000  -1.9972   0.0000   0.0000   0.0000   0.3558
  19.000   1.1099   0.26621   0.26004  -0.1417  0.0978  1.0000  -1.9923   0.0000   0.0000   0.0000   0.3574
  19.500   1.1272   0.27429   0.26814  -0.1453  0.0921  1.0000  -2.0144   0.0000   0.0000   0.0000   0.3578
  20.000   1.1459   0.28303   0.27690  -0.1484  0.0853  1.0000  -2.0533   0.0000   0.0000   0.0000   0.3576


