xflr5 v6.61

 Calculated polar for: NACA4412_6_80

 1 1 Reynolds number fixed          Mach number fixed         

 xtrf =   1.000 (top)        1.000 (bottom)
 Mach =   0.200     Re =     0.060 e 6     Ncrit =   9.000

  alpha     CL        CD       CDp       Cm    Top Xtr Bot Xtr   Cpmin    Chinge    XCp    
 ------- -------- --------- --------- -------- ------- ------- -------- --------- ---------
 -30.000  -0.9951   0.36423   0.35732   0.1261  1.0000  0.0210  -1.6863   0.0000   0.0000   0.0000   0.3529
 -29.500  -0.9808   0.35928   0.35233   0.1209  1.0000  0.0217  -1.6773   0.0000   0.0000   0.0000   0.3504
 -29.000  -0.9659   0.35479   0.34779   0.1155  1.0000  0.0221  -1.6799   0.0000   0.0000   0.0000   0.3477
 -28.500  -0.9511   0.35009   0.34309   0.1102  1.0000  0.0224  -1.6776   0.0000   0.0000   0.0000   0.3449
 -28.000  -0.9367   0.34348   0.33644   0.1057  1.0000  0.0231  -1.6187   0.0000   0.0000   0.0000   0.3428
 -27.500  -0.9215   0.33796   0.33088   0.1008  1.0000  0.0239  -1.5816   0.0000   0.0000   0.0000   0.3402
 -27.000  -0.9059   0.33251   0.32540   0.0959  1.0000  0.0248  -1.5743   0.0000   0.0000   0.0000   0.3375
 -26.500  -0.8900   0.32714   0.32001   0.0909  1.0000  0.0256  -1.5846   0.0000   0.0000   0.0000   0.3346
 -26.000  -0.8737   0.32226   0.31510   0.0858  1.0000  0.0262  -1.6109   0.0000   0.0000   0.0000   0.3315
 -25.500  -0.8575   0.31742   0.31026   0.0807  1.0000  0.0265  -1.6408   0.0000   0.0000   0.0000   0.3281
 -25.000  -0.8413   0.31013   0.30293   0.0766  1.0000  0.0274  -1.5949   0.0000   0.0000   0.0000   0.3258
 -24.500  -0.8247   0.30426   0.29703   0.0721  1.0000  0.0285  -1.5808   0.0000   0.0000   0.0000   0.3228
 -24.000  -0.8078   0.29856   0.29131   0.0675  1.0000  0.0297  -1.5780   0.0000   0.0000   0.0000   0.3195
 -23.500  -0.7907   0.29352   0.28626   0.0626  1.0000  0.0306  -1.5950   0.0000   0.0000   0.0000   0.3158
 -23.000  -0.7737   0.28746   0.28020   0.0581  1.0000  0.0313  -1.5882   0.0000   0.0000   0.0000   0.3123
 -22.500  -0.7565   0.28084   0.27356   0.0541  1.0000  0.0328  -1.5422   0.0000   0.0000   0.0000   0.3094
 -22.000  -0.7391   0.27501   0.26772   0.0498  1.0000  0.0344  -1.5256   0.0000   0.0000   0.0000   0.3057
 -21.500  -0.7219   0.27001   0.26271   0.0450  1.0000  0.0354  -1.5339   0.0000   0.0000   0.0000   0.3013
 -21.000  -0.7045   0.26345   0.25616   0.0410  1.0000  0.0362  -1.5072   0.0000   0.0000   0.0000   0.2976
 -20.500  -0.6867   0.25670   0.24939   0.0373  1.0000  0.0379  -1.4541   0.0000   0.0000   0.0000   0.2942
 -20.000  -0.6691   0.25078   0.24345   0.0332  1.0000  0.0397  -1.4288   0.0000   0.0000   0.0000   0.2899
 -19.500  -0.6527   0.24628   0.23897   0.0285  1.0000  0.0407  -1.4797   0.0000   0.0000   0.0000   0.2844
 -19.000  -0.6343   0.23832   0.23102   0.0254  1.0000  0.0421  -1.4452   0.0000   0.0000   0.0000   0.2812
 -18.500  -0.6168   0.23203   0.22472   0.0218  1.0000  0.0443  -1.4382   0.0000   0.0000   0.0000   0.2768
 -18.000  -0.6009   0.22723   0.21993   0.0174  1.0000  0.0460  -1.4764   0.0000   0.0000   0.0000   0.2708
 -17.500  -0.5829   0.21960   0.21232   0.0145  1.0000  0.0479  -1.4394   0.0000   0.0000   0.0000   0.2670
 -17.000  -0.5662   0.21362   0.20634   0.0110  1.0000  0.0509  -1.4320   0.0000   0.0000   0.0000   0.2619
 -16.500  -0.5518   0.20858   0.20134   0.0069  1.0000  0.0522  -1.4612   0.0000   0.0000   0.0000   0.2553
 -16.000  -0.5333   0.20070   0.19345   0.0046  1.0000  0.0551  -1.3988   0.0000   0.0000   0.0000   0.2516
 -15.500  -0.5192   0.19550   0.18828   0.0008  1.0000  0.0577  -1.4111   0.0000   0.0000   0.0000   0.2450
 -15.000  -0.5028   0.18827   0.18107  -0.0017  1.0000  0.0596  -1.3737   0.0000   0.0000   0.0000   0.2401
 -14.500  -0.4878   0.18210   0.17491  -0.0046  1.0000  0.0631  -1.3479   0.0000   0.0000   0.0000   0.2344
 -14.000  -0.4756   0.17642   0.16929  -0.0079  1.0000  0.0650  -1.3775   0.0000   0.0000   0.0000   0.2275
 -13.500  -0.4594   0.16925   0.16213  -0.0098  1.0000  0.0690  -1.3634   0.0000   0.0000   0.0000   0.2228
 -13.000  -0.4501   0.16418   0.15713  -0.0132  1.0000  0.0716  -1.4227   0.0000   0.0000   0.0000   0.2152
 -12.500  -0.4347   0.15705   0.15001  -0.0149  1.0000  0.0769  -1.4063   0.0000   0.0000   0.0000   0.2104
 -12.000  -0.4219   0.15038   0.14339  -0.0169  1.0000  0.0807  -1.4137   0.0000   0.0000   0.0000   0.2048
 -11.500  -0.4161   0.14590   0.13898  -0.0200  1.0000  0.0852  -1.4703   0.0000   0.0000   0.0000   0.1970
 -11.000  -0.3995   0.13802   0.13114  -0.0209  1.0000  0.0901  -1.4351   0.0000   0.0000   0.0000   0.1929
 -10.500  -0.3931   0.13262   0.12582  -0.0234  1.0000  0.0939  -1.4763   0.0000   0.0000   0.0000   0.1859
 -10.000  -0.3839   0.12684   0.12011  -0.0251  1.0000  0.1001  -1.4814   0.0000   0.0000   0.0000   0.1803
  -9.750  -0.3795   0.12359   0.11692  -0.0258  1.0000  0.1018  -1.4872   0.0000   0.0000   0.0000   0.1776
  -9.500  -0.3713   0.11997   0.11331  -0.0258  1.0000  0.1057  -1.4587   0.0000   0.0000   0.0000   0.1762
  -9.250  -0.3734   0.11836   0.11179  -0.0274  1.0000  0.1085  -1.5004   0.0000   0.0000   0.0000   0.1725
  -9.000  -0.3654   0.11438   0.10784  -0.0273  1.0000  0.1111  -1.4749   0.0000   0.0000   0.0000   0.1713
  -8.750  -0.3620   0.11170   0.10522  -0.0277  1.0000  0.1154  -1.4715   0.0000   0.0000   0.0000   0.1697
  -8.500  -0.3704   0.11094   0.10459  -0.0294  1.0000  0.1173  -1.5367   0.0000   0.0000   0.0000   0.1670
  -8.250  -0.3564   0.10609   0.09974  -0.0280  1.0000  0.1232  -1.4645   0.0000   0.0000   0.0000   0.1678
  -8.000  -0.3661   0.10529   0.09907  -0.0291  1.0000  0.1258  -1.5219   0.0000   0.0000   0.0000   0.1673
  -7.750  -0.3547   0.10097   0.09477  -0.0277  1.0000  0.1316  -1.4620   0.0000   0.0000   0.0000   0.1685
  -7.500  -0.3668   0.10023   0.09417  -0.0278  1.0000  0.1345  -1.5132   0.0000   0.0000   0.0000   0.1712
  -7.250  -0.3582   0.09631   0.09029  -0.0264  1.0000  0.1396  -1.4634   0.0000   0.0000   0.0000   0.1735
  -7.000  -0.3694   0.09527   0.08941  -0.0263  1.0000  0.1434  -1.5040   0.0000   0.0000   0.0000   0.1763
  -6.750  -0.3655   0.09192   0.08612  -0.0249  1.0000  0.1474  -1.4927   0.0000   0.0000   0.0000   0.1794
  -6.500  -0.3708   0.09025   0.08456  -0.0257  1.0000  0.1526  -1.5256   0.0000   0.0000   0.0000   0.1785
  -6.250  -0.3685   0.08713   0.08151  -0.0244  1.0000  0.1567  -1.5211   0.0000   0.0000   0.0000   0.1816
  -6.000  -0.3730   0.08555   0.08001  -0.0266  1.0000  0.1629  -1.5644   0.0000   0.0000   0.0000   0.1767
  -5.750  -0.3683   0.08209   0.07662  -0.0238  1.0000  0.1681  -1.5372   0.0000   0.0000   0.0000   0.1834
  -5.500  -0.3688   0.07976   0.07435  -0.0259  1.0000  0.1746  -1.5693   0.0000   0.0000   0.0000   0.1780
  -5.000  -0.3606   0.07419   0.06887  -0.0249  1.0000  0.1910  -1.5546   0.0000   0.0000   0.0000   0.1793
  -4.750  -0.3551   0.07139   0.06610  -0.0252  1.0000  0.2015  -1.5495   0.0000   0.0000   0.0000   0.1774
  -4.500  -0.3461   0.06868   0.06337  -0.0285  1.0000  0.2161  -1.5608   0.0000   0.0000   0.0000   0.1663
  -4.250  -0.3400   0.06564   0.06036  -0.0262  1.0000  0.2294  -1.5251   0.0000   0.0000   0.0000   0.1715
  -4.000  -0.3277   0.06294   0.05763  -0.0285  1.0000  0.2502  -1.5127   0.0000   0.0000   0.0000   0.1617
  -3.750  -0.3197   0.05990   0.05464  -0.0263  1.0000  0.2651  -1.4725   0.0000   0.0000   0.0000   0.1663
  -3.000  -0.2847   0.05170   0.04645  -0.0247  1.0000  0.3510  -1.3467   0.0000   0.0000   0.0000   0.1618
  -2.500  -0.1141   0.03602   0.02835  -0.0617  1.0000  0.1356  -1.6868   0.0000   0.0000   0.0000  -0.2943
  -2.250  -0.0787   0.03272   0.02448  -0.0638  1.0000  0.1280  -1.6904   0.0000   0.0000   0.0000  -0.5662
  -2.000  -0.0464   0.03033   0.02157  -0.0651  1.0000  0.1290  -1.6548   0.0000   0.0000   0.0000  -1.1612
  -1.750  -0.0154   0.02836   0.01907  -0.0659  1.0000  0.1318  -1.6042   0.0000   0.0000   0.0000  -4.0580
  -1.500   0.0127   0.02694   0.01728  -0.0663  1.0000  0.1407  -1.5226   0.0000   0.0000   0.0000   5.4739
  -1.250   0.0402   0.02583   0.01578  -0.0664  1.0000  0.1537  -1.4667   0.0000   0.0000   0.0000   1.9069
  -1.000   0.0651   0.02500   0.01483  -0.0663  1.0000  0.1723  -1.3816   0.0000   0.0000   0.0000   1.2720
  -0.750   0.0892   0.02434   0.01419  -0.0661  1.0000  0.1995  -1.2858   0.0000   0.0000   0.0000   0.9933
  -0.500   0.1155   0.02381   0.01367  -0.0662  1.0000  0.2453  -1.1865   0.0000   0.0000   0.0000   0.8240
  -0.250   0.1451   0.02302   0.01323  -0.0669  1.0000  0.3409  -1.0888   0.0000   0.0000   0.0000   0.7119
   0.000   0.1719   0.02089   0.01267  -0.0666  0.9977  1.0000  -0.9981   0.0000   0.0000   0.0000   0.6374
   0.250   0.2236   0.02187   0.01303  -0.0720  0.9843  1.0000  -0.7955   0.0000   0.0000   0.0000   0.5717
   0.500   0.2726   0.02276   0.01354  -0.0769  0.9705  1.0000  -0.6222   0.0000   0.0000   0.0000   0.5316
   0.750   0.3190   0.02355   0.01406  -0.0813  0.9565  1.0000  -0.4924   0.0000   0.0000   0.0000   0.5040
   1.000   0.3617   0.02427   0.01459  -0.0849  0.9418  1.0000  -0.5172   0.0000   0.0000   0.0000   0.4836
   1.250   0.4041   0.02493   0.01511  -0.0883  0.9275  1.0000  -0.5430   0.0000   0.0000   0.0000   0.4672
   1.500   0.4480   0.02554   0.01562  -0.0918  0.9141  1.0000  -0.5707   0.0000   0.0000   0.0000   0.4534
   1.750   0.4832   0.02612   0.01615  -0.0937  0.8992  1.0000  -0.5940   0.0000   0.0000   0.0000   0.4422
   2.000   0.5190   0.02669   0.01668  -0.0956  0.8848  1.0000  -0.6187   0.0000   0.0000   0.0000   0.4323
   2.250   0.5556   0.02722   0.01723  -0.0976  0.8711  1.0000  -0.6451   0.0000   0.0000   0.0000   0.4234
   2.500   0.5915   0.02773   0.01775  -0.0993  0.8577  1.0000  -0.6725   0.0000   0.0000   0.0000   0.4155
   2.750   0.6265   0.02822   0.01829  -0.1007  0.8445  1.0000  -0.7006   0.0000   0.0000   0.0000   0.4082
   3.000   0.6605   0.02871   0.01888  -0.1019  0.8315  1.0000  -0.7299   0.0000   0.0000   0.0000   0.4016
   3.250   0.6935   0.02921   0.01947  -0.1029  0.8187  1.0000  -0.7610   0.0000   0.0000   0.0000   0.3954
   3.500   0.7261   0.02969   0.02007  -0.1037  0.8059  1.0000  -0.8591   0.0000   0.0000   0.0000   0.3897
   3.750   0.7583   0.03017   0.02068  -0.1043  0.7933  1.0000  -0.9922   0.0000   0.0000   0.0000   0.3842
   4.000   0.7899   0.03063   0.02133  -0.1047  0.7807  1.0000  -1.1374   0.0000   0.0000   0.0000   0.3790
   4.250   0.8216   0.03104   0.02192  -0.1050  0.7683  1.0000  -1.2996   0.0000   0.0000   0.0000   0.3740
   4.500   0.8549   0.03133   0.02242  -0.1052  0.7560  1.0000  -1.4742   0.0000   0.0000   0.0000   0.3691
   4.750   0.8917   0.03136   0.02274  -0.1056  0.7440  1.0000  -1.7107   0.0000   0.0000   0.0000   0.3642
   5.000   0.9258   0.03143   0.02309  -0.1054  0.7309  1.0000  -1.9563   0.0000   0.0000   0.0000   0.3594
   5.250   0.9527   0.03182   0.02376  -0.1044  0.7155  1.0000  -2.1896   0.0000   0.0000   0.0000   0.3549
   5.500   0.9769   0.03217   0.02444  -0.1028  0.6970  1.0000  -2.4326   0.0000   0.0000   0.0000   0.3503
   5.750   1.0463   0.02446   0.01690  -0.0952  0.6264  1.0000  -3.0185   0.0000   0.0000   0.0000   0.3357
   6.000   1.0669   0.02290   0.01544  -0.0895  0.5660  1.0000  -3.2753   0.0000   0.0000   0.0000   0.3282
   6.250   1.0673   0.02226   0.01448  -0.0809  0.4443  1.0000  -3.3843   0.0000   0.0000   0.0000   0.3198
   6.500   1.0479   0.02541   0.01565  -0.0730  0.1971  1.0000  -3.3482   0.0000   0.0000   0.0000   0.3133
   6.750   1.0482   0.02865   0.01816  -0.0691  0.1442  1.0000  -3.3746   0.0000   0.0000   0.0000   0.3093
   7.000   1.0591   0.03105   0.02038  -0.0662  0.1199  1.0000  -3.4488   0.0000   0.0000   0.0000   0.3056
   7.250   1.0819   0.03344   0.02263  -0.0645  0.1037  1.0000  -3.5615   0.0000   0.0000   0.0000   0.3024
   7.500   1.1212   0.03647   0.02549  -0.0647  0.0918  1.0000  -3.7617   0.0000   0.0000   0.0000   0.3002
   7.750   1.1560   0.03969   0.02888  -0.0646  0.0836  1.0000  -3.9267   0.0000   0.0000   0.0000   0.2981
   8.000   1.1863   0.04317   0.03266  -0.0640  0.0794  1.0000  -4.0516   0.0000   0.0000   0.0000   0.2959
   8.250   1.2119   0.04717   0.03700  -0.0630  0.0776  1.0000  -4.1420   0.0000   0.0000   0.0000   0.2936
   8.500   1.2246   0.05070   0.04119  -0.0604  0.0762  1.0000  -4.1676   0.0000   0.0000   0.0000   0.2908
   8.750   1.2338   0.05450   0.04554  -0.0579  0.0753  1.0000  -4.1863   0.0000   0.0000   0.0000   0.2881
   9.000   1.2402   0.05870   0.05027  -0.0554  0.0760  1.0000  -4.1852   0.0000   0.0000   0.0000   0.2856
   9.250   1.2474   0.06334   0.05526  -0.0533  0.0775  1.0000  -4.1918   0.0000   0.0000   0.0000   0.2835
   9.500   1.2367   0.06742   0.05998  -0.0498  0.0800  1.0000  -4.1033   0.0000   0.0000   0.0000   0.2809
   9.750   1.2231   0.07192   0.06492  -0.0470  0.0825  1.0000  -4.0234   0.0000   0.0000   0.0000   0.2788
  10.000   1.2305   0.07748   0.07062  -0.0460  0.0855  1.0000  -4.0333   0.0000   0.0000   0.0000   0.2775
  10.250   1.1920   0.08056   0.07413  -0.0423  0.0870  1.0000  -3.8936   0.0000   0.0000   0.0000   0.2754
  10.500   1.1604   0.08487   0.07869  -0.0410  0.0882  1.0000  -3.7851   0.0000   0.0000   0.0000   0.2750
  10.750   1.1324   0.09016   0.08412  -0.0417  0.0895  1.0000  -3.6815   0.0000   0.0000   0.0000   0.2762
  11.000   1.1112   0.09620   0.09028  -0.0436  0.0913  1.0000  -3.5909   0.0000   0.0000   0.0000   0.2784
  11.250   1.0909   0.10303   0.09721  -0.0468  0.0939  1.0000  -3.4803   0.0000   0.0000   0.0000   0.2819
  11.500   1.0445   0.11433   0.10856  -0.0566  0.0966  1.0000  -3.1920   0.0000   0.0000   0.0000   0.2931
  11.750   1.0216   0.12667   0.12087  -0.0652  0.1071  1.0000  -2.9190   0.0000   0.0000   0.0000   0.3027
  12.000   0.9572   0.15615   0.15012  -0.0932  0.2409  1.0000  -2.0351   0.0000   0.0000   0.0000   0.3369
  12.250   0.8201   0.13407   0.12854  -0.0602  0.1209  1.0000  -2.1822   0.0000   0.0000   0.0000   0.3132
  12.500   0.9727   0.16719   0.16119  -0.0953  0.2382  1.0000  -2.0285   0.0000   0.0000   0.0000   0.3371
  13.000   0.9767   0.17631   0.17027  -0.0982  0.2262  1.0000  -1.9972   0.0000   0.0000   0.0000   0.3391
  13.500   0.9698   0.18303   0.17692  -0.1024  0.2101  1.0000  -1.9319   0.0000   0.0000   0.0000   0.3435
  14.000   0.9944   0.19301   0.18696  -0.1028  0.1936  1.0000  -1.9782   0.0000   0.0000   0.0000   0.3408
  14.500   0.9925   0.19945   0.19335  -0.1077  0.1810  1.0000  -1.9136   0.0000   0.0000   0.0000   0.3452
  15.000   1.0021   0.20705   0.20092  -0.1112  0.1681  1.0000  -1.8885   0.0000   0.0000   0.0000   0.3470
  15.500   1.0162   0.21502   0.20890  -0.1143  0.1562  1.0000  -1.9068   0.0000   0.0000   0.0000   0.3478
  16.000   1.0387   0.22498   0.21888  -0.1157  0.1440  1.0000  -2.0006   0.0000   0.0000   0.0000   0.3460
  16.500   1.0444   0.23094   0.22481  -0.1210  0.1338  1.0000  -1.9744   0.0000   0.0000   0.0000   0.3498
  17.000   1.0562   0.23802   0.23188  -0.1255  0.1241  1.0000  -1.9778   0.0000   0.0000   0.0000   0.3520
  17.500   1.0713   0.24579   0.23964  -0.1293  0.1160  1.0000  -1.9970   0.0000   0.0000   0.0000   0.3531
  18.000   1.0880   0.25396   0.24782  -0.1328  0.1084  1.0000  -2.0257   0.0000   0.0000   0.0000   0.3537
  18.500   1.1067   0.26289   0.25678  -0.1359  0.1008  1.0000  -2.0678   0.0000   0.0000   0.0000   0.3536
  19.000   1.1160   0.26761   0.26149  -0.1422  0.0943  1.0000  -2.0138   0.0000   0.0000   0.0000   0.3574
  19.500   1.1296   0.27431   0.26817  -0.1474  0.0883  1.0000  -1.9884   0.0000   0.0000   0.0000   0.3595
  20.000   1.1449   0.28144   0.27531  -0.1520  0.0827  1.0000  -1.9796   0.0000   0.0000   0.0000   0.3609


