xflr5 v6.61

 Calculated polar for: NACA4412_8_00

 1 1 Reynolds number fixed          Mach number fixed         

 xtrf =   1.000 (top)        1.000 (bottom)
 Mach =   0.200     Re =     0.080 e 6     Ncrit =   9.000

  alpha     CL        CD       CDp       Cm    Top Xtr Bot Xtr   Cpmin    Chinge    XCp    
 ------- -------- --------- --------- -------- ------- ------- -------- --------- ---------
 -18.500  -0.3884   0.19156   0.18595  -0.0070  1.0000  0.0427  -0.9756   0.0000   0.0000   0.0000   0.2267
 -18.000  -0.3778   0.18688   0.18125  -0.0096  1.0000  0.0449  -0.9720   0.0000   0.0000   0.0000   0.2196
 -17.500  -0.3709   0.18371   0.17807  -0.0127  1.0000  0.0461  -1.0151   0.0000   0.0000   0.0000   0.2108
 -17.000  -0.3575   0.17740   0.17176  -0.0144  1.0000  0.0479  -0.9710   0.0000   0.0000   0.0000   0.2048
 -16.500  -0.3473   0.17288   0.16723  -0.0166  1.0000  0.0504  -0.9907   0.0000   0.0000   0.0000   0.1972
 -16.000  -0.3429   0.17033   0.16467  -0.0196  1.0000  0.0519  -1.0725   0.0000   0.0000   0.0000   0.1879
 -15.500  -0.3286   0.16389   0.15822  -0.0208  1.0000  0.0542  -1.0376   0.0000   0.0000   0.0000   0.1817
 -15.000  -0.3218   0.16028   0.15461  -0.0231  1.0000  0.0574  -1.0748   0.0000   0.0000   0.0000   0.1735
 -14.500  -0.3131   0.15561   0.14995  -0.0246  1.0000  0.0597  -1.0831   0.0000   0.0000   0.0000   0.1664
 -14.000  -0.3069   0.15191   0.14624  -0.0263  1.0000  0.0634  -1.1020   0.0000   0.0000   0.0000   0.1594
 -13.500  -0.3054   0.14882   0.14316  -0.0281  1.0000  0.0650  -1.1541   0.0000   0.0000   0.0000   0.1529
 -13.000  -0.2946   0.14335   0.13770  -0.0289  1.0000  0.0688  -1.1241   0.0000   0.0000   0.0000   0.1468
 -12.500  -0.2981   0.14075   0.13513  -0.0315  1.0000  0.0711  -1.2123   0.0000   0.0000   0.0000   0.1395
 -12.000  -0.2819   0.13337   0.12778  -0.0314  1.0000  0.0751  -1.1369   0.0000   0.0000   0.0000   0.1336
 -11.500  -0.2865   0.12997   0.12444  -0.0337  1.0000  0.0780  -1.2170   0.0000   0.0000   0.0000   0.1275
 -11.000  -0.2715   0.12268   0.11717  -0.0332  1.0000  0.0829  -1.1533   0.0000   0.0000   0.0000   0.1227
 -10.500  -0.2702   0.11729   0.11186  -0.0342  1.0000  0.0868  -1.1979   0.0000   0.0000   0.0000   0.1189
 -10.000  -0.2721   0.11248   0.10714  -0.0350  1.0000  0.0926  -1.2451   0.0000   0.0000   0.0000   0.1171
  -9.750  -0.3573   0.11922   0.11339  -0.0313  1.0000  0.0863  -1.5009   0.0000   0.0000   0.0000   0.1562
  -9.500  -0.2632   0.10584   0.10056  -0.0341  1.0000  0.0977  -1.2231   0.0000   0.0000   0.0000   0.1163
  -9.250  -0.3545   0.11430   0.10857  -0.0327  1.0000  0.0926  -1.5367   0.0000   0.0000   0.0000   0.1518
  -9.000  -0.2707   0.10077   0.09563  -0.0347  1.0000  0.1016  -1.2903   0.0000   0.0000   0.0000   0.1182
  -8.750  -0.3430   0.10768   0.10204  -0.0321  1.0000  0.0985  -1.5055   0.0000   0.0000   0.0000   0.1508
  -8.500  -0.2703   0.09519   0.09014  -0.0335  1.0000  0.1080  -1.2914   0.0000   0.0000   0.0000   0.1226
  -8.250  -0.3437   0.10248   0.09699  -0.0324  1.0000  0.1027  -1.5411   0.0000   0.0000   0.0000   0.1506
  -8.000  -0.2709   0.08934   0.08440  -0.0316  1.0000  0.1127  -1.2867   0.0000   0.0000   0.0000   0.1303
  -7.750  -0.3546   0.09880   0.09350  -0.0320  1.0000  0.1084  -1.5985   0.0000   0.0000   0.0000   0.1553
  -7.500  -0.2980   0.08627   0.08153  -0.0300  1.0000  0.1171  -1.3840   0.0000   0.0000   0.0000   0.1468
  -7.250  -0.3539   0.09332   0.08816  -0.0289  1.0000  0.1135  -1.5709   0.0000   0.0000   0.0000   0.1643
  -7.000  -0.2981   0.08047   0.07585  -0.0259  1.0000  0.1235  -1.3395   0.0000   0.0000   0.0000   0.1611
  -6.750  -0.3863   0.09117   0.08627  -0.0300  1.0000  0.1173  -1.7144   0.0000   0.0000   0.0000   0.1693
  -6.500  -0.3417   0.07877   0.07440  -0.0221  1.0000  0.1258  -1.4550   0.0000   0.0000   0.0000   0.1838
  -6.250  -0.3826   0.08535   0.08055  -0.0256  1.0000  0.1246  -1.6489   0.0000   0.0000   0.0000   0.1803
  -6.000  -0.3480   0.07355   0.06929  -0.0181  1.0000  0.1334  -1.4228   0.0000   0.0000   0.0000   0.1966
  -5.750  -0.3854   0.08027   0.07557  -0.0244  1.0000  0.1318  -1.6436   0.0000   0.0000   0.0000   0.1843
  -5.250  -0.3826   0.07500   0.07030  -0.0314  1.0000  0.1441  -1.7215   0.0000   0.0000   0.0000   0.1658
  -5.000  -0.3799   0.07215   0.06755  -0.0257  1.0000  0.1488  -1.6296   0.0000   0.0000   0.0000   0.1802
  -4.750  -0.3733   0.06910   0.06449  -0.0278  1.0000  0.1561  -1.6281   0.0000   0.0000   0.0000   0.1735
  -4.500  -0.3630   0.06601   0.06135  -0.0304  1.0000  0.1648  -1.6201   0.0000   0.0000   0.0000   0.1644
  -4.250  -0.3507   0.06297   0.05826  -0.0323  1.0000  0.1744  -1.6072   0.0000   0.0000   0.0000   0.1559
  -4.000  -0.3375   0.05998   0.05523  -0.0336  1.0000  0.1848  -1.5904   0.0000   0.0000   0.0000   0.1487
  -3.750  -0.3235   0.05707   0.05227  -0.0343  1.0000  0.1958  -1.5629   0.0000   0.0000   0.0000   0.1422
  -2.750  -0.1619   0.03377   0.02645  -0.0588  1.0000  0.1015  -1.9498   0.0000   0.0000   0.0000  -0.1176
  -2.500  -0.1329   0.03156   0.02391  -0.0600  0.9993  0.1039  -1.8729   0.0000   0.0000   0.0000  -0.2067
  -2.250  -0.0809   0.02862   0.02020  -0.0647  0.9934  0.1055  -1.8280   0.0000   0.0000   0.0000  -0.5571
  -2.000  -0.0318   0.02686   0.01786  -0.0687  0.9865  0.1155  -1.7263   0.0000   0.0000   0.0000  -1.9271
  -1.750   0.0146   0.02555   0.01626  -0.0722  0.9784  0.1289  -1.5905   0.0000   0.0000   0.0000   5.2373
  -1.500   0.0596   0.02460   0.01516  -0.0755  0.9697  0.1495  -1.4590   0.0000   0.0000   0.0000   1.5254
  -1.250   0.1035   0.02382   0.01436  -0.0786  0.9606  0.1807  -1.3220   0.0000   0.0000   0.0000   1.0128
  -1.000   0.1463   0.02311   0.01384  -0.0815  0.9510  0.2304  -1.1710   0.0000   0.0000   0.0000   0.8092
  -0.750   0.1890   0.02234   0.01340  -0.0843  0.9417  0.3220  -1.0226   0.0000   0.0000   0.0000   0.6972
  -0.500   0.2362   0.01993   0.01286  -0.0870  0.9354  1.0000  -0.8723   0.0000   0.0000   0.0000   0.6192
  -0.250   0.2767   0.02023   0.01272  -0.0895  0.9229  1.0000  -0.7223   0.0000   0.0000   0.0000   0.5736
   0.000   0.3165   0.02048   0.01269  -0.0918  0.9106  1.0000  -0.5895   0.0000   0.0000   0.0000   0.5398
   0.250   0.3564   0.02069   0.01268  -0.0940  0.8985  1.0000  -0.5533   0.0000   0.0000   0.0000   0.5133
   0.500   0.3964   0.02087   0.01268  -0.0962  0.8868  1.0000  -0.5787   0.0000   0.0000   0.0000   0.4920
   0.750   0.4377   0.02096   0.01264  -0.0986  0.8758  1.0000  -0.6057   0.0000   0.0000   0.0000   0.4741
   1.000   0.4834   0.02092   0.01250  -0.1015  0.8664  1.0000  -0.6365   0.0000   0.0000   0.0000   0.4587
   1.250   0.5201   0.02099   0.01249  -0.1028  0.8545  1.0000  -0.6627   0.0000   0.0000   0.0000   0.4461
   1.500   0.5548   0.02105   0.01251  -0.1037  0.8425  1.0000  -0.6885   0.0000   0.0000   0.0000   0.4352
   1.750   0.5886   0.02112   0.01255  -0.1044  0.8306  1.0000  -0.7146   0.0000   0.0000   0.0000   0.4254
   2.000   0.6215   0.02119   0.01261  -0.1048  0.8188  1.0000  -0.7412   0.0000   0.0000   0.0000   0.4165
   2.250   0.6543   0.02126   0.01266  -0.1052  0.8073  1.0000  -0.7690   0.0000   0.0000   0.0000   0.4084
   2.500   0.6884   0.02126   0.01267  -0.1057  0.7966  1.0000  -0.7991   0.0000   0.0000   0.0000   0.4010
   2.750   0.7261   0.02108   0.01253  -0.1066  0.7873  1.0000  -0.8338   0.0000   0.0000   0.0000   0.3940
   3.000   0.7541   0.02128   0.01277  -0.1061  0.7748  1.0000  -0.8628   0.0000   0.0000   0.0000   0.3877
   3.250   0.7818   0.02152   0.01305  -0.1057  0.7624  1.0000  -0.8942   0.0000   0.0000   0.0000   0.3819
   3.500   0.8097   0.02176   0.01337  -0.1052  0.7502  1.0000  -0.9872   0.0000   0.0000   0.0000   0.3765
   3.750   0.8383   0.02197   0.01365  -0.1048  0.7385  1.0000  -1.1008   0.0000   0.0000   0.0000   0.3713
   4.000   0.8689   0.02208   0.01383  -0.1045  0.7275  1.0000  -1.2353   0.0000   0.0000   0.0000   0.3664
   4.250   0.9016   0.02207   0.01393  -0.1044  0.7169  1.0000  -1.3841   0.0000   0.0000   0.0000   0.3617
   4.500   0.9270   0.02243   0.01441  -0.1035  0.7038  1.0000  -1.5295   0.0000   0.0000   0.0000   0.3573
   4.750   0.9528   0.02278   0.01488  -0.1026  0.6906  1.0000  -1.6804   0.0000   0.0000   0.0000   0.3531
   5.000   0.9791   0.02309   0.01532  -0.1017  0.6771  1.0000  -1.8378   0.0000   0.0000   0.0000   0.3490
   5.250   1.0061   0.02331   0.01571  -0.1007  0.6630  1.0000  -2.0222   0.0000   0.0000   0.0000   0.3449
   5.500   1.0359   0.02317   0.01569  -0.0995  0.6466  1.0000  -2.2480   0.0000   0.0000   0.0000   0.3407
   5.750   1.0635   0.02242   0.01499  -0.0971  0.6190  1.0000  -2.4815   0.0000   0.0000   0.0000   0.3356
   6.000   1.0906   0.02147   0.01400  -0.0942  0.5845  1.0000  -2.7236   0.0000   0.0000   0.0000   0.3303
   6.250   1.1112   0.02121   0.01381  -0.0912  0.5516  1.0000  -2.9331   0.0000   0.0000   0.0000   0.3257
   6.500   1.1308   0.02093   0.01355  -0.0881  0.5141  1.0000  -3.1512   0.0000   0.0000   0.0000   0.3212
   6.750   1.1424   0.02089   0.01358  -0.0839  0.4628  1.0000  -3.3386   0.0000   0.0000   0.0000   0.3163
   7.000   1.1412   0.02135   0.01371  -0.0776  0.3474  1.0000  -3.4460   0.0000   0.0000   0.0000   0.3106
   7.250   1.1229   0.02455   0.01539  -0.0708  0.1768  1.0000  -3.4445   0.0000   0.0000   0.0000   0.3053
   7.500   1.1192   0.02729   0.01760  -0.0663  0.1329  1.0000  -3.4925   0.0000   0.0000   0.0000   0.3012
   7.750   1.1234   0.02941   0.01955  -0.0627  0.1127  1.0000  -3.5789   0.0000   0.0000   0.0000   0.2975
   8.000   1.1331   0.03141   0.02139  -0.0598  0.0993  1.0000  -3.6909   0.0000   0.0000   0.0000   0.2941
   8.250   1.1548   0.03354   0.02342  -0.0584  0.0879  1.0000  -3.8381   0.0000   0.0000   0.0000   0.2916
   8.500   1.1896   0.03625   0.02590  -0.0589  0.0783  1.0000  -4.0311   0.0000   0.0000   0.0000   0.2902
   8.750   1.2237   0.03908   0.02890  -0.0591  0.0721  1.0000  -4.1879   0.0000   0.0000   0.0000   0.2887
   9.000   1.2481   0.04196   0.03211  -0.0581  0.0671  1.0000  -4.3446   0.0000   0.0000   0.0000   0.2866
   9.250   1.2819   0.04595   0.03615  -0.0586  0.0644  1.0000  -4.5373   0.0000   0.0000   0.0000   0.2855
   9.500   1.2918   0.04914   0.03997  -0.0558  0.0632  1.0000  -4.5847   0.0000   0.0000   0.0000   0.2827
   9.750   1.2970   0.05242   0.04380  -0.0529  0.0617  1.0000  -4.6269   0.0000   0.0000   0.0000   0.2800
  10.000   1.3014   0.05582   0.04760  -0.0502  0.0602  1.0000  -4.6805   0.0000   0.0000   0.0000   0.2775
  10.250   1.3001   0.05954   0.05175  -0.0472  0.0601  1.0000  -4.6907   0.0000   0.0000   0.0000   0.2750
  10.500   1.2907   0.06341   0.05608  -0.0437  0.0608  1.0000  -4.6527   0.0000   0.0000   0.0000   0.2723
  10.750   1.2769   0.06712   0.06015  -0.0402  0.0616  1.0000  -4.6104   0.0000   0.0000   0.0000   0.2696
  11.000   1.2612   0.07090   0.06421  -0.0371  0.0623  1.0000  -4.5685   0.0000   0.0000   0.0000   0.2673
  11.250   1.2453   0.07493   0.06849  -0.0349  0.0630  1.0000  -4.5289   0.0000   0.0000   0.0000   0.2655
  11.500   1.2316   0.07934   0.07309  -0.0335  0.0637  1.0000  -4.4985   0.0000   0.0000   0.0000   0.2645
  11.750   1.2224   0.08412   0.07804  -0.0328  0.0647  1.0000  -4.4791   0.0000   0.0000   0.0000   0.2638
  12.000   1.1760   0.08934   0.08361  -0.0338  0.0656  1.0000  -4.2832   0.0000   0.0000   0.0000   0.2654
  12.250   1.1371   0.09657   0.09109  -0.0374  0.0668  1.0000  -4.0929   0.0000   0.0000   0.0000   0.2692
  12.500   1.1033   0.10501   0.09967  -0.0426  0.0680  1.0000  -3.9058   0.0000   0.0000   0.0000   0.2747
  12.750   1.0786   0.11370   0.10845  -0.0479  0.0696  1.0000  -3.7446   0.0000   0.0000   0.0000   0.2803
  13.000   1.0634   0.12198   0.11678  -0.0524  0.0717  1.0000  -3.6127   0.0000   0.0000   0.0000   0.2849
  13.250   1.0365   0.13516   0.12998  -0.0609  0.0784  1.0000  -3.2838   0.0000   0.0000   0.0000   0.2945


