xflr5 v6.61

 Calculated polar for: NACA4412_9_00

 1 1 Reynolds number fixed          Mach number fixed         

 xtrf =   1.000 (top)        1.000 (bottom)
 Mach =   0.200     Re =     0.025 e 6     Ncrit =   9.000

  alpha     CL        CD       CDp       Cm    Top Xtr Bot Xtr   Cpmin    Chinge    XCp    
 ------- -------- --------- --------- -------- ------- ------- -------- --------- ---------
 -27.000  -0.8590   0.32970   0.31846   0.0802  1.0000  0.0810  -1.6170   0.0000   0.0000   0.0000   0.3198
 -26.500  -0.8436   0.32536   0.31408   0.0753  1.0000  0.0842  -1.6067   0.0000   0.0000   0.0000   0.3166
 -26.000  -0.8284   0.32117   0.30988   0.0703  1.0000  0.0860  -1.6009   0.0000   0.0000   0.0000   0.3131
 -25.500  -0.8113   0.31375   0.30242   0.0663  1.0000  0.0895  -1.5623   0.0000   0.0000   0.0000   0.3106
 -25.000  -0.7961   0.31040   0.29906   0.0613  1.0000  0.0924  -1.5543   0.0000   0.0000   0.0000   0.3068
 -24.500  -0.7790   0.30337   0.29201   0.0571  1.0000  0.0949  -1.5202   0.0000   0.0000   0.0000   0.3038
 -24.000  -0.7623   0.29781   0.28643   0.0528  1.0000  0.0989  -1.5014   0.0000   0.0000   0.0000   0.3005
 -23.500  -0.7473   0.29463   0.28326   0.0480  1.0000  0.1012  -1.5172   0.0000   0.0000   0.0000   0.2961
 -23.000  -0.7286   0.28634   0.27492   0.0444  1.0000  0.1060  -1.4882   0.0000   0.0000   0.0000   0.2934
 -22.500  -0.7145   0.28406   0.27268   0.0396  1.0000  0.1092  -1.5054   0.0000   0.0000   0.0000   0.2886
 -22.000  -0.6950   0.27520   0.26378   0.0363  1.0000  0.1147  -1.4694   0.0000   0.0000   0.0000   0.2858
 -21.500  -0.6799   0.27126   0.25986   0.0318  1.0000  0.1181  -1.4728   0.0000   0.0000   0.0000   0.2811
 -21.000  -0.6613   0.26398   0.25256   0.0284  1.0000  0.1238  -1.4429   0.0000   0.0000   0.0000   0.2777
 -20.500  -0.6452   0.25872   0.24733   0.0244  1.0000  0.1276  -1.4326   0.0000   0.0000   0.0000   0.2732
 -20.000  -0.6281   0.25299   0.24159   0.0208  1.0000  0.1336  -1.4092   0.0000   0.0000   0.0000   0.2689
 -19.500  -0.6104   0.24617   0.23479   0.0175  1.0000  0.1383  -1.3802   0.0000   0.0000   0.0000   0.2648
 -19.000  -0.5978   0.24352   0.23218   0.0134  1.0000  0.1440  -1.3946   0.0000   0.0000   0.0000   0.2592
 -18.500  -0.5778   0.23508   0.22373   0.0107  1.0000  0.1518  -1.3762   0.0000   0.0000   0.0000   0.2555
 -18.000  -0.5604   0.22841   0.21708   0.0077  1.0000  0.1587  -1.3706   0.0000   0.0000   0.0000   0.2510
 -17.500  -0.5456   0.22312   0.21184   0.0044  1.0000  0.1655  -1.3756   0.0000   0.0000   0.0000   0.2459
 -17.000  -0.5339   0.21971   0.20847   0.0011  1.0000  0.1731  -1.3894   0.0000   0.0000   0.0000   0.2404
 -16.500  -0.5149   0.21177   0.20055  -0.0012  1.0000  0.1822  -1.3686   0.0000   0.0000   0.0000   0.2361
 -16.000  -0.4977   0.20478   0.19359  -0.0036  1.0000  0.1908  -1.3531   0.0000   0.0000   0.0000   0.2314
 -15.500  -0.4824   0.19854   0.18740  -0.0060  1.0000  0.2004  -1.3407   0.0000   0.0000   0.0000   0.2265
 -15.000  -0.4680   0.19257   0.18147  -0.0082  1.0000  0.2116  -1.3273   0.0000   0.0000   0.0000   0.2217
 -14.500  -0.4549   0.18685   0.17581  -0.0102  1.0000  0.2239  -1.3135   0.0000   0.0000   0.0000   0.2171
 -14.000  -0.4434   0.18148   0.17050  -0.0121  1.0000  0.2364  -1.3009   0.0000   0.0000   0.0000   0.2126
 -13.500  -0.4335   0.17632   0.16542  -0.0137  1.0000  0.2488  -1.3036   0.0000   0.0000   0.0000   0.2084
 -13.000  -0.4198   0.16956   0.15874  -0.0151  1.0000  0.2622  -1.3035   0.0000   0.0000   0.0000   0.2044
 -12.500  -0.4021   0.16189   0.15110  -0.0159  1.0000  0.2799  -1.2881   0.0000   0.0000   0.0000   0.2007
 -12.000  -0.4000   0.15825   0.14757  -0.0168  1.0000  0.2972  -1.3067   0.0000   0.0000   0.0000   0.1988
 -11.500  -0.3828   0.15052   0.13991  -0.0170  1.0000  0.3208  -1.2838   0.0000   0.0000   0.0000   0.1964
 -11.000  -0.3687   0.14361   0.13308  -0.0170  1.0000  0.3449  -1.2651   0.0000   0.0000   0.0000   0.1947
 -10.500  -0.3569   0.13722   0.12677  -0.0167  1.0000  0.3707  -1.2474   0.0000   0.0000   0.0000   0.1942
 -10.000  -0.3512   0.13206   0.12173  -0.0157  1.0000  0.4005  -1.2362   0.0000   0.0000   0.0000   0.1965
  -9.500  -0.3367   0.12522   0.11500  -0.0141  1.0000  0.4413  -1.1989   0.0000   0.0000   0.0000   0.1994
  -9.000  -0.3158   0.11746   0.10732  -0.0122  1.0000  0.4919  -1.1737   0.0000   0.0000   0.0000   0.2024
  -8.500  -0.2980   0.11059   0.10052  -0.0096  1.0000  0.5523  -1.1491   0.0000   0.0000   0.0000   0.2088
  -8.000  -0.2721   0.10297   0.09296  -0.0062  1.0000  0.6426  -1.1066   0.0000   0.0000   0.0000   0.2174
  -7.500  -0.0537   0.07305   0.06226  -0.0372  1.0000  1.0000  -0.8854   0.0000   0.0000   0.0000  -0.4942
  -7.000  -0.0375   0.06837   0.05767  -0.0383  1.0000  1.0000  -0.8835   0.0000   0.0000   0.0000  -0.8376
  -6.500  -0.0222   0.06394   0.05334  -0.0391  1.0000  1.0000  -0.8781   0.0000   0.0000   0.0000  -1.6199
  -6.000  -0.0078   0.05978   0.04926  -0.0396  1.0000  1.0000  -0.8699   0.0000   0.0000   0.0000  -5.0990
  -5.500  -0.0836   0.06358   0.05359  -0.0190  1.0000  0.9325  -0.9357   0.0000   0.0000   0.0000  -0.0000
  -5.000  -0.1933   0.06870   0.05948   0.0015  1.0000  0.7954  -1.0481   0.0000   0.0000   0.0000   0.2496
  -3.500  -0.3463   0.06251   0.05408  -0.0185  1.0000  0.3586  -1.5038   0.0000   0.0000   0.0000   0.1941
  -3.000  -0.2773   0.05347   0.04421  -0.0356  1.0000  0.3078  -1.5476   0.0000   0.0000   0.0000   0.1188
  -2.500  -0.2142   0.04670   0.03666  -0.0438  1.0000  0.3029  -1.5086   0.0000   0.0000   0.0000   0.0423
  -2.000  -0.1495   0.04154   0.03055  -0.0496  1.0000  0.3205  -1.4591   0.0000   0.0000   0.0000  -0.0857
  -1.500  -0.0868   0.03782   0.02592  -0.0527  1.0000  0.3629  -1.3565   0.0000   0.0000   0.0000  -0.3630
  -1.000  -0.0289   0.03495   0.02263  -0.0538  1.0000  0.4433  -1.2334   0.0000   0.0000   0.0000  -1.6274
  -0.500   0.0191   0.03174   0.02040  -0.0512  1.0000  0.6351  -1.1203   0.0000   0.0000   0.0000   2.9420
   0.000   0.0748   0.03074   0.01833  -0.0536  1.0000  1.0000  -1.0058   0.0000   0.0000   0.0000   0.9699
   0.500   0.1142   0.03234   0.01891  -0.0536  1.0000  1.0000  -0.8376   0.0000   0.0000   0.0000   0.7192
   1.000   0.1510   0.03415   0.02006  -0.0535  1.0000  1.0000  -0.6805   0.0000   0.0000   0.0000   0.6032
   1.500   0.1862   0.03617   0.02159  -0.0535  1.0000  1.0000  -0.5402   0.0000   0.0000   0.0000   0.5353
   2.000   0.2205   0.03839   0.02343  -0.0537  1.0000  1.0000  -0.4881   0.0000   0.0000   0.0000   0.4906
   2.500   0.2538   0.04081   0.02557  -0.0539  1.0000  1.0000  -0.5061   0.0000   0.0000   0.0000   0.4590
   3.000   0.2863   0.04342   0.02798  -0.0543  1.0000  1.0000  -0.5245   0.0000   0.0000   0.0000   0.4356
   3.500   0.3180   0.04624   0.03067  -0.0547  1.0000  1.0000  -0.5441   0.0000   0.0000   0.0000   0.4177
   4.000   0.3487   0.04928   0.03363  -0.0553  1.0000  1.0000  -0.5647   0.0000   0.0000   0.0000   0.4036
   4.500   0.3785   0.05254   0.03690  -0.0560  1.0000  1.0000  -0.5869   0.0000   0.0000   0.0000   0.3925
   5.000   0.4073   0.05605   0.04045  -0.0568  1.0000  1.0000  -0.6110   0.0000   0.0000   0.0000   0.3836
   5.500   0.4350   0.05983   0.04431  -0.0577  1.0000  1.0000  -0.6383   0.0000   0.0000   0.0000   0.3764
   6.000   0.4616   0.06389   0.04853  -0.0589  1.0000  1.0000  -0.6706   0.0000   0.0000   0.0000   0.3706
   6.500   0.4870   0.06825   0.05307  -0.0601  1.0000  1.0000  -0.7127   0.0000   0.0000   0.0000   0.3661
   7.000   0.5111   0.07295   0.05798  -0.0616  1.0000  1.0000  -0.7716   0.0000   0.0000   0.0000   0.3626
   7.500   0.5339   0.07801   0.06332  -0.0632  1.0000  1.0000  -0.8446   0.0000   0.0000   0.0000   0.3600
   8.000   0.5554   0.08345   0.06905  -0.0651  1.0000  1.0000  -0.9263   0.0000   0.0000   0.0000   0.3582
   8.500   0.5755   0.08932   0.07522  -0.0672  1.0000  1.0000  -1.0120   0.0000   0.0000   0.0000   0.3572
   9.000   0.6050   0.09692   0.08324  -0.0720  0.9933  1.0000  -1.1169   0.0000   0.0000   0.0000   0.3589
   9.500   0.6664   0.10855   0.09554  -0.0843  0.9276  1.0000  -1.2863   0.0000   0.0000   0.0000   0.3660
  10.000   0.7179   0.11982   0.10745  -0.0927  0.8528  1.0000  -1.4359   0.0000   0.0000   0.0000   0.3683
  10.500   0.7543   0.12956   0.11770  -0.0968  0.7711  1.0000  -1.5388   0.0000   0.0000   0.0000   0.3672
  11.000   0.7870   0.13919   0.12776  -0.0988  0.6845  1.0000  -1.6095   0.0000   0.0000   0.0000   0.3644
  11.500   0.8125   0.14835   0.13727  -0.0996  0.6103  1.0000  -1.6559   0.0000   0.0000   0.0000   0.3611
  12.000   0.8390   0.15851   0.14767  -0.1008  0.5558  1.0000  -1.6976   0.0000   0.0000   0.0000   0.3583
  12.500   0.8533   0.16762   0.15692  -0.1024  0.5272  1.0000  -1.7042   0.0000   0.0000   0.0000   0.3576
  13.000   0.8580   0.17457   0.16394  -0.1038  0.5067  1.0000  -1.6859   0.0000   0.0000   0.0000   0.3581
  13.500   0.8811   0.18510   0.17460  -0.1062  0.4845  1.0000  -1.7016   0.0000   0.0000   0.0000   0.3570
  14.000   0.8880   0.19154   0.18108  -0.1081  0.4672  1.0000  -1.6843   0.0000   0.0000   0.0000   0.3576
  14.500   0.9021   0.19915   0.18878  -0.1104  0.4486  1.0000  -1.6958   0.0000   0.0000   0.0000   0.3576
  15.000   0.9251   0.20917   0.19891  -0.1127  0.4298  1.0000  -1.7243   0.0000   0.0000   0.0000   0.3565
  15.500   0.9393   0.21665   0.20641  -0.1153  0.4140  1.0000  -1.7273   0.0000   0.0000   0.0000   0.3566
  16.000   0.9509   0.22256   0.21235  -0.1179  0.3972  1.0000  -1.7212   0.0000   0.0000   0.0000   0.3572
  16.500   0.9672   0.22982   0.21967  -0.1206  0.3804  1.0000  -1.7214   0.0000   0.0000   0.0000   0.3572
  17.000   0.9912   0.24002   0.22996  -0.1230  0.3620  1.0000  -1.7507   0.0000   0.0000   0.0000   0.3559
  17.500   1.0085   0.24800   0.23796  -0.1260  0.3479  1.0000  -1.7712   0.0000   0.0000   0.0000   0.3559
  18.000   1.0203   0.25285   0.24282  -0.1293  0.3330  1.0000  -1.7730   0.0000   0.0000   0.0000   0.3568
  18.500   1.0354   0.25878   0.24880  -0.1326  0.3163  1.0000  -1.7812   0.0000   0.0000   0.0000   0.3573
  19.000   1.0528   0.26597   0.25603  -0.1358  0.3020  1.0000  -1.7914   0.0000   0.0000   0.0000   0.3574
  19.500   1.0708   0.27344   0.26354  -0.1391  0.2881  1.0000  -1.8005   0.0000   0.0000   0.0000   0.3574
  20.000   1.0926   0.28351   0.27368  -0.1418  0.2734  1.0000  -1.8201   0.0000   0.0000   0.0000   0.3564


