xflr5 v6.61

 Calculated polar for: NACA4412_9_00

 1 1 Reynolds number fixed          Mach number fixed         

 xtrf =   1.000 (top)        1.000 (bottom)
 Mach =   0.200     Re =     0.060 e 6     Ncrit =   7.000

  alpha     CL        CD       CDp       Cm    Top Xtr Bot Xtr   Cpmin    Chinge    XCp    
 ------- -------- --------- --------- -------- ------- ------- -------- --------- ---------
 -22.500  -0.7002   0.27390   0.26636   0.0393  1.0000  0.0369  -1.5263   0.0000   0.0000   0.0000   0.2888
 -22.000  -0.6828   0.26799   0.26044   0.0353  1.0000  0.0387  -1.5114   0.0000   0.0000   0.0000   0.2849
 -21.500  -0.6660   0.26287   0.25531   0.0307  1.0000  0.0404  -1.5311   0.0000   0.0000   0.0000   0.2799
 -21.000  -0.6488   0.25659   0.24905   0.0268  1.0000  0.0414  -1.5206   0.0000   0.0000   0.0000   0.2756
 -20.500  -0.6309   0.25015   0.24261   0.0233  1.0000  0.0434  -1.4815   0.0000   0.0000   0.0000   0.2717
 -20.000  -0.6138   0.24446   0.23691   0.0192  1.0000  0.0453  -1.4761   0.0000   0.0000   0.0000   0.2666
 -19.500  -0.5987   0.24021   0.23268   0.0145  1.0000  0.0462  -1.5105   0.0000   0.0000   0.0000   0.2599
 -19.000  -0.5793   0.23203   0.22451   0.0119  1.0000  0.0480  -1.4320   0.0000   0.0000   0.0000   0.2567
 -18.500  -0.5623   0.22604   0.21851   0.0084  1.0000  0.0504  -1.4122   0.0000   0.0000   0.0000   0.2514
 -18.000  -0.5479   0.22144   0.21394   0.0040  1.0000  0.0519  -1.4720   0.0000   0.0000   0.0000   0.2442
 -17.500  -0.5290   0.21369   0.20620   0.0016  1.0000  0.0542  -1.4318   0.0000   0.0000   0.0000   0.2402
 -17.000  -0.5138   0.20825   0.20078  -0.0021  1.0000  0.0575  -1.4553   0.0000   0.0000   0.0000   0.2336
 -16.500  -0.4975   0.20163   0.19418  -0.0050  1.0000  0.0594  -1.4537   0.0000   0.0000   0.0000   0.2279
 -16.000  -0.4813   0.19538   0.18796  -0.0078  1.0000  0.0626  -1.4444   0.0000   0.0000   0.0000   0.2219
 -15.500  -0.4717   0.19132   0.18394  -0.0121  1.0000  0.0644  -1.5134   0.0000   0.0000   0.0000   0.2131
 -15.000  -0.4514   0.18287   0.17550  -0.0134  1.0000  0.0676  -1.4432   0.0000   0.0000   0.0000   0.2091
 -14.500  -0.4406   0.17778   0.17045  -0.0168  1.0000  0.0708  -1.4766   0.0000   0.0000   0.0000   0.2010
 -14.000  -0.4245   0.17054   0.16324  -0.0186  1.0000  0.0733  -1.4421   0.0000   0.0000   0.0000   0.1954
 -13.500  -0.4150   0.16539   0.15815  -0.0216  1.0000  0.0777  -1.4623   0.0000   0.0000   0.0000   0.1877
 -13.000  -0.3992   0.15823   0.15102  -0.0230  1.0000  0.0820  -1.4141   0.0000   0.0000   0.0000   0.1822
 -12.500  -0.3972   0.15415   0.14704  -0.0265  1.0000  0.0855  -1.4894   0.0000   0.0000   0.0000   0.1736
 -12.000  -0.3779   0.14612   0.13901  -0.0270  1.0000  0.0906  -1.4392   0.0000   0.0000   0.0000   0.1690
 -11.500  -0.3722   0.14052   0.13350  -0.0293  1.0000  0.0939  -1.4851   0.0000   0.0000   0.0000   0.1620
 -11.000  -0.3615   0.13439   0.12743  -0.0305  1.0000  0.0996  -1.4817   0.0000   0.0000   0.0000   0.1566
 -10.500  -0.3519   0.12801   0.12112  -0.0316  1.0000  0.1037  -1.4812   0.0000   0.0000   0.0000   0.1517
 -10.000  -0.3588   0.12435   0.11761  -0.0344  1.0000  0.1090  -1.5692   0.0000   0.0000   0.0000   0.1462
  -9.500  -0.3492   0.11800   0.11134  -0.0344  1.0000  0.1170  -1.5405   0.0000   0.0000   0.0000   0.1439
  -9.000  -0.3387   0.11157   0.10501  -0.0337  1.0000  0.1243  -1.5008   0.0000   0.0000   0.0000   0.1431
  -8.500  -0.3363   0.10599   0.09957  -0.0334  1.0000  0.1294  -1.4975   0.0000   0.0000   0.0000   0.1439
  -8.000  -0.3584   0.10319   0.09703  -0.0336  1.0000  0.1349  -1.5891   0.0000   0.0000   0.0000   0.1505
  -7.500  -0.3518   0.09718   0.09114  -0.0305  1.0000  0.1423  -1.5327   0.0000   0.0000   0.0000   0.1580
  -7.000  -0.3692   0.09324   0.08742  -0.0269  1.0000  0.1466  -1.5693   0.0000   0.0000   0.0000   0.1726
  -6.500  -0.3952   0.08998   0.08439  -0.0275  1.0000  0.1536  -1.6633   0.0000   0.0000   0.0000   0.1766
  -6.000  -0.4013   0.08500   0.07953  -0.0268  1.0000  0.1633  -1.6810   0.0000   0.0000   0.0000   0.1799
  -5.500  -0.3995   0.07942   0.07405  -0.0239  1.0000  0.1747  -1.6483   0.0000   0.0000   0.0000   0.1872
  -5.000  -0.3952   0.07400   0.06868  -0.0231  1.0000  0.1869  -1.6276   0.0000   0.0000   0.0000   0.1890
  -4.000  -0.3085   0.04799   0.04139  -0.0489  1.0000  0.0887  -2.1423   0.0000   0.0000   0.0000   0.0878
  -3.500  -0.2480   0.03953   0.03191  -0.0555  0.9980  0.0889  -2.1644   0.0000   0.0000   0.0000   0.0218
  -3.000  -0.1563   0.03295   0.02395  -0.0648  0.9853  0.0977  -2.0576   0.0000   0.0000   0.0000  -0.1714
  -2.500  -0.0693   0.02923   0.01926  -0.0713  0.9704  0.1148  -1.8518   0.0000   0.0000   0.0000  -0.7929
  -2.000   0.0142   0.02711   0.01671  -0.0767  0.9538  0.1467  -1.5926   0.0000   0.0000   0.0000   5.6946
  -1.500   0.0945   0.02569   0.01523  -0.0813  0.9358  0.2052  -1.3096   0.0000   0.0000   0.0000   1.1156
  -1.000   0.1716   0.02441   0.01432  -0.0853  0.9164  0.3264  -1.0381   0.0000   0.0000   0.0000   0.7496
  -0.500   0.2479   0.02203   0.01365  -0.0880  0.8978  1.0000  -0.7815   0.0000   0.0000   0.0000   0.6058
   0.000   0.3259   0.02239   0.01335  -0.0920  0.8765  1.0000  -0.5684   0.0000   0.0000   0.0000   0.5319
   0.500   0.4003   0.02266   0.01321  -0.0951  0.8548  1.0000  -0.6171   0.0000   0.0000   0.0000   0.4866
   1.000   0.4666   0.02299   0.01327  -0.0966  0.8316  1.0000  -0.6636   0.0000   0.0000   0.0000   0.4555
   1.500   0.5332   0.02324   0.01334  -0.0979  0.8097  1.0000  -0.7137   0.0000   0.0000   0.0000   0.4316
   2.000   0.5999   0.02342   0.01342  -0.0990  0.7888  1.0000  -0.7674   0.0000   0.0000   0.0000   0.4126
   2.500   0.6571   0.02389   0.01385  -0.0986  0.7655  1.0000  -0.8183   0.0000   0.0000   0.0000   0.3972
   3.000   0.7229   0.02404   0.01402  -0.0992  0.7459  1.0000  -0.8813   0.0000   0.0000   0.0000   0.3840
   3.500   0.7743   0.02478   0.01484  -0.0980  0.7222  1.0000  -0.9404   0.0000   0.0000   0.0000   0.3728
   4.000   0.8378   0.02502   0.01520  -0.0980  0.7026  1.0000  -1.0819   0.0000   0.0000   0.0000   0.3628
   4.500   0.8855   0.02601   0.01639  -0.0962  0.6782  1.0000  -1.2781   0.0000   0.0000   0.0000   0.3539
   5.000   0.9419   0.02658   0.01717  -0.0951  0.6562  1.0000  -1.5355   0.0000   0.0000   0.0000   0.3458
   5.500   0.9955   0.02724   0.01813  -0.0935  0.6318  1.0000  -1.8187   0.0000   0.0000   0.0000   0.3382
   6.000   1.0462   0.02791   0.01911  -0.0913  0.6041  1.0000  -2.1238   0.0000   0.0000   0.0000   0.3310
   6.500   1.0997   0.02771   0.01922  -0.0882  0.5666  1.0000  -2.4760   0.0000   0.0000   0.0000   0.3232
   7.000   1.1459   0.02665   0.01828  -0.0827  0.5080  1.0000  -2.8906   0.0000   0.0000   0.0000   0.3145
   7.500   1.1751   0.02653   0.01832  -0.0757  0.4397  1.0000  -3.2393   0.0000   0.0000   0.0000   0.3061
   8.000   1.1802   0.02758   0.01929  -0.0663  0.3298  1.0000  -3.4739   0.0000   0.0000   0.0000   0.2971
   8.500   1.1561   0.03185   0.02234  -0.0555  0.1875  1.0000  -3.5616   0.0000   0.0000   0.0000   0.2882
   9.000   1.1430   0.03721   0.02712  -0.0485  0.1335  1.0000  -3.6697   0.0000   0.0000   0.0000   0.2819
   9.500   1.1508   0.04181   0.03159  -0.0436  0.1055  1.0000  -3.8607   0.0000   0.0000   0.0000   0.2767
  10.000   1.1879   0.04568   0.03530  -0.0403  0.0855  1.0000  -4.1784   0.0000   0.0000   0.0000   0.2721
  10.500   1.2523   0.05053   0.04034  -0.0396  0.0708  1.0000  -4.5631   0.0000   0.0000   0.0000   0.2691
  11.000   1.2926   0.05704   0.04743  -0.0379  0.0640  1.0000  -4.8191   0.0000   0.0000   0.0000   0.2662
  11.500   1.2842   0.06381   0.05507  -0.0330  0.0612  1.0000  -4.8707   0.0000   0.0000   0.0000   0.2619
  12.000   1.2824   0.07076   0.06239  -0.0301  0.0578  1.0000  -5.0116   0.0000   0.0000   0.0000   0.2590
  12.500   1.2450   0.07933   0.07162  -0.0279  0.0573  1.0000  -4.9155   0.0000   0.0000   0.0000   0.2572
  13.000   1.2042   0.08968   0.08251  -0.0292  0.0574  1.0000  -4.7817   0.0000   0.0000   0.0000   0.2583
  13.500   1.1619   0.10198   0.09522  -0.0337  0.0578  1.0000  -4.6058   0.0000   0.0000   0.0000   0.2624
  15.000   1.0068   0.16849   0.16211  -0.0760  0.0705  1.0000  -2.9601   0.0000   0.0000   0.0000   0.3083
  15.500   1.0065   0.18140   0.17501  -0.0826  0.0714  1.0000  -2.8056   0.0000   0.0000   0.0000   0.3145


