xflr5 v6.61

 Calculated polar for: NACA4412_8_00

 1 1 Reynolds number fixed          Mach number fixed         

 xtrf =   1.000 (top)        1.000 (bottom)
 Mach =   0.200     Re =     0.025 e 6     Ncrit =   9.000

  alpha     CL        CD       CDp       Cm    Top Xtr Bot Xtr   Cpmin    Chinge    XCp    
 ------- -------- --------- --------- -------- ------- ------- -------- --------- ---------
 -29.000  -0.9438   0.35382   0.34295   0.1065  1.0000  0.0659  -1.6412   0.0000   0.0000   0.0000   0.3382
 -28.500  -0.9289   0.34815   0.33723   0.1017  1.0000  0.0683  -1.6298   0.0000   0.0000   0.0000   0.3358
 -28.000  -0.9143   0.34432   0.33335   0.0965  1.0000  0.0704  -1.6355   0.0000   0.0000   0.0000   0.3328
 -27.500  -0.8996   0.34028   0.32930   0.0913  1.0000  0.0715  -1.6424   0.0000   0.0000   0.0000   0.3297
 -27.000  -0.8834   0.33263   0.32159   0.0870  1.0000  0.0742  -1.6136   0.0000   0.0000   0.0000   0.3276
 -26.500  -0.8680   0.32823   0.31716   0.0820  1.0000  0.0770  -1.6101   0.0000   0.0000   0.0000   0.3244
 -26.000  -0.8528   0.32423   0.31315   0.0770  1.0000  0.0786  -1.6127   0.0000   0.0000   0.0000   0.3210
 -25.500  -0.8358   0.31663   0.30549   0.0729  1.0000  0.0822  -1.5784   0.0000   0.0000   0.0000   0.3187
 -25.000  -0.8206   0.31347   0.30231   0.0678  1.0000  0.0850  -1.5794   0.0000   0.0000   0.0000   0.3149
 -24.500  -0.8034   0.30599   0.29481   0.0637  1.0000  0.0876  -1.5482   0.0000   0.0000   0.0000   0.3122
 -24.000  -0.7869   0.30074   0.28954   0.0592  1.0000  0.0914  -1.5271   0.0000   0.0000   0.0000   0.3089
 -23.500  -0.7716   0.29707   0.28589   0.0543  1.0000  0.0934  -1.5210   0.0000   0.0000   0.0000   0.3048
 -23.000  -0.7531   0.28895   0.27771   0.0507  1.0000  0.0976  -1.4732   0.0000   0.0000   0.0000   0.3021
 -22.500  -0.7384   0.28625   0.27501   0.0458  1.0000  0.1006  -1.4916   0.0000   0.0000   0.0000   0.2976
 -22.000  -0.7193   0.27753   0.26628   0.0423  1.0000  0.1045  -1.4665   0.0000   0.0000   0.0000   0.2949
 -21.500  -0.7044   0.27433   0.26308   0.0377  1.0000  0.1086  -1.4804   0.0000   0.0000   0.0000   0.2902
 -21.000  -0.6853   0.26598   0.25472   0.0343  1.0000  0.1134  -1.4541   0.0000   0.0000   0.0000   0.2872
 -20.500  -0.6721   0.26413   0.25292   0.0296  1.0000  0.1174  -1.4749   0.0000   0.0000   0.0000   0.2818
 -20.000  -0.6516   0.25469   0.24343   0.0267  1.0000  0.1237  -1.4357   0.0000   0.0000   0.0000   0.2790
 -19.500  -0.6353   0.24905   0.23782   0.0229  1.0000  0.1280  -1.4272   0.0000   0.0000   0.0000   0.2746
 -19.000  -0.6194   0.24413   0.23292   0.0192  1.0000  0.1341  -1.4160   0.0000   0.0000   0.0000   0.2700
 -18.500  -0.6008   0.23651   0.22529   0.0161  1.0000  0.1396  -1.3849   0.0000   0.0000   0.0000   0.2661
 -18.000  -0.5877   0.23282   0.22167   0.0123  1.0000  0.1448  -1.3839   0.0000   0.0000   0.0000   0.2607
 -17.500  -0.5700   0.22595   0.21480   0.0094  1.0000  0.1526  -1.3502   0.0000   0.0000   0.0000   0.2565
 -17.000  -0.5521   0.21872   0.20759   0.0066  1.0000  0.1602  -1.3442   0.0000   0.0000   0.0000   0.2523
 -16.500  -0.5361   0.21246   0.20136   0.0038  1.0000  0.1681  -1.3450   0.0000   0.0000   0.0000   0.2477
 -16.000  -0.5212   0.20662   0.19556   0.0010  1.0000  0.1766  -1.3479   0.0000   0.0000   0.0000   0.2429
 -15.500  -0.5076   0.20115   0.19015  -0.0017  1.0000  0.1854  -1.3527   0.0000   0.0000   0.0000   0.2379
 -15.000  -0.4958   0.19627   0.18534  -0.0043  1.0000  0.1946  -1.3601   0.0000   0.0000   0.0000   0.2330
 -14.500  -0.4849   0.19145   0.18056  -0.0066  1.0000  0.2046  -1.3651   0.0000   0.0000   0.0000   0.2283
 -14.000  -0.4706   0.18479   0.17396  -0.0085  1.0000  0.2157  -1.3550   0.0000   0.0000   0.0000   0.2240
 -13.500  -0.4514   0.17627   0.16547  -0.0099  1.0000  0.2292  -1.3245   0.0000   0.0000   0.0000   0.2201
 -13.000  -0.4370   0.16964   0.15887  -0.0113  1.0000  0.2450  -1.3041   0.0000   0.0000   0.0000   0.2164
 -12.500  -0.4306   0.16518   0.15450  -0.0127  1.0000  0.2604  -1.3041   0.0000   0.0000   0.0000   0.2130
 -12.000  -0.4128   0.15711   0.14649  -0.0136  1.0000  0.2779  -1.2670   0.0000   0.0000   0.0000   0.2097
 -11.500  -0.4067   0.15230   0.14179  -0.0144  1.0000  0.2964  -1.2830   0.0000   0.0000   0.0000   0.2076
 -11.000  -0.3899   0.14459   0.13415  -0.0147  1.0000  0.3178  -1.2737   0.0000   0.0000   0.0000   0.2052
 -10.500  -0.3785   0.13821   0.12784  -0.0146  1.0000  0.3430  -1.2710   0.0000   0.0000   0.0000   0.2044
 -10.000  -0.3724   0.13293   0.12268  -0.0139  1.0000  0.3732  -1.2727   0.0000   0.0000   0.0000   0.2058
  -9.500  -0.3558   0.12549   0.11534  -0.0128  1.0000  0.4113  -1.2491   0.0000   0.0000   0.0000   0.2073
  -9.000  -0.3446   0.11924   0.10921  -0.0109  1.0000  0.4545  -1.2306   0.0000   0.0000   0.0000   0.2116
  -8.500  -0.3268   0.11200   0.10204  -0.0085  1.0000  0.5105  -1.1942   0.0000   0.0000   0.0000   0.2173
  -8.000  -0.3015   0.10399   0.09410  -0.0049  1.0000  0.5980  -1.1361   0.0000   0.0000   0.0000   0.2264
  -7.500  -0.0763   0.07227   0.06156  -0.0340  1.0000  1.0000  -0.9211   0.0000   0.0000   0.0000  -0.2255
  -7.000  -0.0589   0.06742   0.05680  -0.0353  1.0000  1.0000  -0.9119   0.0000   0.0000   0.0000  -0.3858
  -6.500  -0.0421   0.06283   0.05229  -0.0364  1.0000  1.0000  -0.8987   0.0000   0.0000   0.0000  -0.6630
  -6.000  -0.0261   0.05850   0.04804  -0.0374  1.0000  1.0000  -0.8980   0.0000   0.0000   0.0000  -1.2543
  -5.500  -0.0670   0.05939   0.04930  -0.0244  1.0000  0.9623  -0.9369   0.0000   0.0000   0.0000  -0.1385
  -5.000  -0.1661   0.06416   0.05478  -0.0027  1.0000  0.8462  -1.0204   0.0000   0.0000   0.0000   0.2252
  -4.500  -0.2587   0.06707   0.05840   0.0110  1.0000  0.7328  -1.1362   0.0000   0.0000   0.0000   0.2880
  -4.000  -0.3412   0.06789   0.05982   0.0194  1.0000  0.6354  -1.2546   0.0000   0.0000   0.0000   0.3043
  -3.500  -0.3519   0.06349   0.05542  -0.0079  1.0000  0.4269  -1.4421   0.0000   0.0000   0.0000   0.2255
  -3.000  -0.2559   0.05309   0.04394  -0.0380  1.0000  0.3087  -1.5229   0.0000   0.0000   0.0000   0.0993
  -2.500  -0.1863   0.04589   0.03591  -0.0477  1.0000  0.2922  -1.5055   0.0000   0.0000   0.0000  -0.0087
  -2.000  -0.1186   0.04039   0.02943  -0.0538  1.0000  0.3035  -1.4468   0.0000   0.0000   0.0000  -0.2080
  -1.500  -0.0513   0.03636   0.02438  -0.0576  1.0000  0.3427  -1.3405   0.0000   0.0000   0.0000  -0.8810
  -1.000   0.0111   0.03314   0.02057  -0.0591  1.0000  0.4262  -1.2253   0.0000   0.0000   0.0000   5.5917
  -0.500   0.0600   0.02903   0.01796  -0.0559  1.0000  0.6745  -1.1053   0.0000   0.0000   0.0000   1.1849
   0.000   0.1154   0.02888   0.01606  -0.0581  1.0000  1.0000  -0.9843   0.0000   0.0000   0.0000   0.7541
   0.500   0.1553   0.03034   0.01655  -0.0578  1.0000  1.0000  -0.7909   0.0000   0.0000   0.0000   0.6218
   1.000   0.1926   0.03203   0.01762  -0.0576  1.0000  1.0000  -0.6220   0.0000   0.0000   0.0000   0.5477
   1.500   0.2284   0.03395   0.01906  -0.0575  1.0000  1.0000  -0.4729   0.0000   0.0000   0.0000   0.5000
   2.000   0.2629   0.03609   0.02086  -0.0576  1.0000  1.0000  -0.4901   0.0000   0.0000   0.0000   0.4666
   2.500   0.2964   0.03844   0.02297  -0.0578  1.0000  1.0000  -0.5083   0.0000   0.0000   0.0000   0.4421
   3.000   0.3290   0.04101   0.02537  -0.0581  1.0000  1.0000  -0.5274   0.0000   0.0000   0.0000   0.4233
   3.500   0.3608   0.04378   0.02806  -0.0586  1.0000  1.0000  -0.5476   0.0000   0.0000   0.0000   0.4086
   4.000   0.3916   0.04678   0.03104  -0.0592  1.0000  1.0000  -0.5691   0.0000   0.0000   0.0000   0.3968
   4.500   0.4214   0.05002   0.03432  -0.0599  1.0000  1.0000  -0.5928   0.0000   0.0000   0.0000   0.3873
   5.000   0.4501   0.05351   0.03790  -0.0607  1.0000  1.0000  -0.6195   0.0000   0.0000   0.0000   0.3796
   5.500   0.4777   0.05728   0.04185  -0.0617  1.0000  1.0000  -0.6519   0.0000   0.0000   0.0000   0.3734
   6.000   0.5041   0.06136   0.04612  -0.0629  1.0000  1.0000  -0.7014   0.0000   0.0000   0.0000   0.3684
   6.500   0.5292   0.06577   0.05077  -0.0642  1.0000  1.0000  -0.7814   0.0000   0.0000   0.0000   0.3646
   7.000   0.5528   0.07054   0.05587  -0.0657  1.0000  1.0000  -0.8791   0.0000   0.0000   0.0000   0.3616
   7.500   0.5750   0.07572   0.06137  -0.0675  1.0000  1.0000  -0.9857   0.0000   0.0000   0.0000   0.3596
   8.000   0.5956   0.08136   0.06736  -0.0695  1.0000  1.0000  -1.0970   0.0000   0.0000   0.0000   0.3584
   8.500   0.6145   0.08751   0.07393  -0.0719  1.0000  1.0000  -1.2020   0.0000   0.0000   0.0000   0.3581
   9.000   0.6369   0.09485   0.08172  -0.0758  0.9959  1.0000  -1.3173   0.0000   0.0000   0.0000   0.3596
   9.500   1.1801   0.07001   0.06017  -0.0496  0.2245  1.0000  -3.4966   0.0000   0.0000   0.0000   0.2822
  10.000   1.1365   0.08151   0.07212  -0.0481  0.2248  1.0000  -3.3403   0.0000   0.0000   0.0000   0.2821
  11.000   0.9778   0.12322   0.11348  -0.0718  0.2696  1.0000  -2.5309   0.0000   0.0000   0.0000   0.3129
  11.500   0.9615   0.13666   0.12683  -0.0772  0.2708  1.0000  -2.3910   0.0000   0.0000   0.0000   0.3194
  12.500   0.9364   0.16388   0.15391  -0.0913  0.3107  1.0000  -2.0910   0.0000   0.0000   0.0000   0.3358
  13.000   0.8906   0.17925   0.16913  -0.1089  0.4736  1.0000  -1.7709   0.0000   0.0000   0.0000   0.3601
  13.500   0.9020   0.18745   0.17737  -0.1112  0.4603  1.0000  -1.7596   0.0000   0.0000   0.0000   0.3605
  14.000   0.9161   0.19579   0.18576  -0.1136  0.4461  1.0000  -1.7520   0.0000   0.0000   0.0000   0.3607
  14.500   0.9382   0.20606   0.19614  -0.1160  0.4293  1.0000  -1.7577   0.0000   0.0000   0.0000   0.3597
  15.000   0.9523   0.21390   0.20400  -0.1185  0.4146  1.0000  -1.7441   0.0000   0.0000   0.0000   0.3599
  15.500   0.9617   0.21935   0.20945  -0.1211  0.3976  1.0000  -1.7389   0.0000   0.0000   0.0000   0.3606
  16.000   0.9773   0.22665   0.21678  -0.1238  0.3813  1.0000  -1.7514   0.0000   0.0000   0.0000   0.3607
  16.500   0.9980   0.23552   0.22570  -0.1263  0.3633  1.0000  -1.7749   0.0000   0.0000   0.0000   0.3598
  17.000   1.0159   0.24376   0.23399  -0.1291  0.3471  1.0000  -1.7865   0.0000   0.0000   0.0000   0.3596
  17.500   1.0295   0.24963   0.23987  -0.1323  0.3322  1.0000  -1.7824   0.0000   0.0000   0.0000   0.3603
  18.000   1.0453   0.25622   0.24648  -0.1355  0.3163  1.0000  -1.7817   0.0000   0.0000   0.0000   0.3606
  18.500   1.0662   0.26510   0.25541  -0.1382  0.2990  1.0000  -1.7939   0.0000   0.0000   0.0000   0.3598
  19.000   1.0850   0.27371   0.26407  -0.1413  0.2846  1.0000  -1.8146   0.0000   0.0000   0.0000   0.3595
  19.500   1.0998   0.27957   0.26995  -0.1450  0.2718  1.0000  -1.8341   0.0000   0.0000   0.0000   0.3603
  20.000   1.1149   0.28547   0.27586  -0.1488  0.2590  1.0000  -1.8512   0.0000   0.0000   0.0000   0.3610


