xflr5 v6.61

 Calculated polar for: NACA4412_7_20

 1 1 Reynolds number fixed          Mach number fixed         

 xtrf =   1.000 (top)        1.000 (bottom)
 Mach =   0.200     Re =     0.090 e 6     Ncrit =   7.000

  alpha     CL        CD       CDp       Cm    Top Xtr Bot Xtr   Cpmin    Chinge    XCp    
 ------- -------- --------- --------- -------- ------- ------- -------- --------- ---------
 -26.500  -0.8774   0.32560   0.31970   0.0878  1.0000  0.0152  -1.6479   0.0000   0.0000   0.0000   0.3315
 -26.000  -0.8619   0.31957   0.31364   0.0833  1.0000  0.0157  -1.6129   0.0000   0.0000   0.0000   0.3289
 -25.500  -0.8457   0.31385   0.30790   0.0786  1.0000  0.0163  -1.6013   0.0000   0.0000   0.0000   0.3260
 -25.000  -0.8292   0.30811   0.30214   0.0740  1.0000  0.0169  -1.5982   0.0000   0.0000   0.0000   0.3230
 -24.500  -0.8124   0.30232   0.29632   0.0693  1.0000  0.0176  -1.6011   0.0000   0.0000   0.0000   0.3198
 -24.000  -0.7952   0.29658   0.29057   0.0646  1.0000  0.0181  -1.6146   0.0000   0.0000   0.0000   0.3163
 -23.500  -0.7779   0.29124   0.28522   0.0598  1.0000  0.0184  -1.6434   0.0000   0.0000   0.0000   0.3125
 -23.000  -0.7609   0.28493   0.27891   0.0554  1.0000  0.0187  -1.6265   0.0000   0.0000   0.0000   0.3091
 -22.500  -0.7440   0.27852   0.27249   0.0514  1.0000  0.0194  -1.5698   0.0000   0.0000   0.0000   0.3060
 -22.000  -0.7266   0.27251   0.26646   0.0472  1.0000  0.0204  -1.5368   0.0000   0.0000   0.0000   0.3025
 -21.500  -0.7090   0.26655   0.26049   0.0429  1.0000  0.0216  -1.5220   0.0000   0.0000   0.0000   0.2985
 -21.000  -0.6914   0.26118   0.25512   0.0382  1.0000  0.0222  -1.5427   0.0000   0.0000   0.0000   0.2937
 -20.500  -0.6740   0.25439   0.24834   0.0344  1.0000  0.0226  -1.4985   0.0000   0.0000   0.0000   0.2899
 -20.000  -0.6564   0.24789   0.24183   0.0308  1.0000  0.0236  -1.4664   0.0000   0.0000   0.0000   0.2862
 -19.500  -0.6388   0.24166   0.23560   0.0269  1.0000  0.0248  -1.4686   0.0000   0.0000   0.0000   0.2819
 -19.000  -0.6213   0.23560   0.22954   0.0228  1.0000  0.0259  -1.4943   0.0000   0.0000   0.0000   0.2770
 -18.500  -0.6047   0.23032   0.22426   0.0183  1.0000  0.0264  -1.5561   0.0000   0.0000   0.0000   0.2709
 -18.000  -0.5870   0.22283   0.21678   0.0155  1.0000  0.0271  -1.5027   0.0000   0.0000   0.0000   0.2673
 -17.500  -0.5698   0.21642   0.21037   0.0122  1.0000  0.0285  -1.4731   0.0000   0.0000   0.0000   0.2626
 -17.000  -0.5530   0.21019   0.20416   0.0086  1.0000  0.0299  -1.4711   0.0000   0.0000   0.0000   0.2572
 -16.500  -0.5383   0.20510   0.19908   0.0042  1.0000  0.0308  -1.5312   0.0000   0.0000   0.0000   0.2497
 -16.000  -0.5204   0.19732   0.19132   0.0021  1.0000  0.0324  -1.4387   0.0000   0.0000   0.0000   0.2462
 -15.500  -0.5046   0.19106   0.18507  -0.0011  1.0000  0.0345  -1.4188   0.0000   0.0000   0.0000   0.2403
 -15.000  -0.4915   0.18579   0.17983  -0.0051  1.0000  0.0356  -1.4634   0.0000   0.0000   0.0000   0.2324
 -14.500  -0.4748   0.17815   0.17220  -0.0070  1.0000  0.0368  -1.4131   0.0000   0.0000   0.0000   0.2281
 -14.000  -0.4600   0.17173   0.16580  -0.0096  1.0000  0.0389  -1.4185   0.0000   0.0000   0.0000   0.2222
 -13.500  -0.4486   0.16615   0.16026  -0.0131  1.0000  0.0406  -1.4949   0.0000   0.0000   0.0000   0.2141
 -13.000  -0.4341   0.15897   0.15311  -0.0151  1.0000  0.0418  -1.4856   0.0000   0.0000   0.0000   0.2088
 -12.500  -0.4206   0.15252   0.14667  -0.0171  1.0000  0.0442  -1.4791   0.0000   0.0000   0.0000   0.2029
 -12.000  -0.4127   0.14722   0.14142  -0.0206  1.0000  0.0461  -1.5654   0.0000   0.0000   0.0000   0.1939
 -11.500  -0.3974   0.13981   0.13406  -0.0216  1.0000  0.0486  -1.5087   0.0000   0.0000   0.0000   0.1898
 -11.000  -0.3909   0.13459   0.12889  -0.0248  1.0000  0.0517  -1.5776   0.0000   0.0000   0.0000   0.1810
 -10.500  -0.3769   0.12744   0.12179  -0.0255  1.0000  0.0543  -1.5263   0.0000   0.0000   0.0000   0.1767
 -10.000  -0.3705   0.12198   0.11640  -0.0280  1.0000  0.0575  -1.5704   0.0000   0.0000   0.0000   0.1690
  -9.500  -0.3609   0.11551   0.11001  -0.0292  1.0000  0.0594  -1.5598   0.0000   0.0000   0.0000   0.1641
  -9.000  -0.3539   0.10990   0.10449  -0.0305  1.0000  0.0633  -1.5588   0.0000   0.0000   0.0000   0.1592
  -8.500  -0.3527   0.10451   0.09922  -0.0320  1.0000  0.0652  -1.6039   0.0000   0.0000   0.0000   0.1550
  -8.000  -0.3467   0.09896   0.09378  -0.0314  1.0000  0.0692  -1.5713   0.0000   0.0000   0.0000   0.1555
  -7.500  -0.3675   0.09604   0.09111  -0.0317  1.0000  0.0711  -1.7164   0.0000   0.0000   0.0000   0.1603
  -7.000  -0.3614   0.09009   0.08525  -0.0280  1.0000  0.0749  -1.6503   0.0000   0.0000   0.0000   0.1694
  -6.500  -0.3770   0.08622   0.08159  -0.0318  1.0000  0.0781  -1.8065   0.0000   0.0000   0.0000   0.1632
  -6.000  -0.3741   0.08080   0.07625  -0.0286  1.0000  0.0843  -1.7518   0.0000   0.0000   0.0000   0.1712
  -5.500  -0.3706   0.07529   0.07083  -0.0286  1.0000  0.0892  -1.7528   0.0000   0.0000   0.0000   0.1708
  -5.000  -0.3585   0.06910   0.06464  -0.0322  1.0000  0.0953  -1.7845   0.0000   0.0000   0.0000   0.1584
  -4.500  -0.3358   0.06258   0.05806  -0.0363  1.0000  0.1033  -1.7834   0.0000   0.0000   0.0000   0.1403
  -4.000  -0.2739   0.05410   0.04925  -0.0482  0.9941  0.1188  -1.7435   0.0000   0.0000   0.0000   0.0719
  -3.500  -0.1882   0.04573   0.04043  -0.0616  0.9820  0.1457  -1.5898   0.0000   0.0000   0.0000  -0.0799
  -3.000  -0.0707   0.02770   0.01980  -0.0767  0.9764  0.0589  -2.2635   0.0000   0.0000   0.0000  -0.8449
  -2.500   0.0134   0.02359   0.01470  -0.0822  0.9654  0.0686  -2.0135   0.0000   0.0000   0.0000   6.4456
  -2.000   0.0924   0.02106   0.01170  -0.0863  0.9520  0.0881  -1.7064   0.0000   0.0000   0.0000   1.1895
  -1.500   0.1697   0.01938   0.01002  -0.0902  0.9374  0.1330  -1.3593   0.0000   0.0000   0.0000   0.7838
  -1.000   0.2448   0.01798   0.00909  -0.0938  0.9217  0.2594  -1.0355   0.0000   0.0000   0.0000   0.6342
  -0.500   0.3232   0.01561   0.00841  -0.0973  0.9070  1.0000  -0.7068   0.0000   0.0000   0.0000   0.5513
   0.000   0.4035   0.01552   0.00782  -0.1013  0.8903  1.0000  -0.5636   0.0000   0.0000   0.0000   0.5007
   0.500   0.4711   0.01547   0.00749  -0.1028  0.8681  1.0000  -0.6088   0.0000   0.0000   0.0000   0.4674
   1.000   0.5366   0.01541   0.00724  -0.1037  0.8449  1.0000  -0.6554   0.0000   0.0000   0.0000   0.4420
   1.500   0.6003   0.01535   0.00707  -0.1042  0.8205  1.0000  -0.7039   0.0000   0.0000   0.0000   0.4219
   2.000   0.6616   0.01536   0.00703  -0.1041  0.7949  1.0000  -0.7544   0.0000   0.0000   0.0000   0.4053
   2.500   0.7207   0.01547   0.00714  -0.1037  0.7679  1.0000  -0.8075   0.0000   0.0000   0.0000   0.3914
   3.000   0.7780   0.01571   0.00739  -0.1029  0.7404  1.0000  -0.9012   0.0000   0.0000   0.0000   0.3794
   3.500   0.8338   0.01607   0.00784  -0.1020  0.7130  1.0000  -1.1550   0.0000   0.0000   0.0000   0.3690
   4.000   0.8888   0.01654   0.00842  -0.1009  0.6859  1.0000  -1.4624   0.0000   0.0000   0.0000   0.3597
   4.500   0.9430   0.01708   0.00916  -0.0996  0.6586  1.0000  -1.8349   0.0000   0.0000   0.0000   0.3514
   5.000   0.9940   0.01769   0.01006  -0.0977  0.6269  1.0000  -2.2626   0.0000   0.0000   0.0000   0.3435
   5.500   1.0337   0.01751   0.00978  -0.0919  0.5462  1.0000  -2.7074   0.0000   0.0000   0.0000   0.3336
   6.000   1.0686   0.01809   0.01031  -0.0865  0.4482  1.0000  -3.1590   0.0000   0.0000   0.0000   0.3250
   6.500   1.0678   0.02239   0.01256  -0.0774  0.1216  1.0000  -3.3755   0.0000   0.0000   0.0000   0.3159
   7.000   1.0828   0.02642   0.01622  -0.0712  0.0717  1.0000  -3.6042   0.0000   0.0000   0.0000   0.3087
   7.500   1.1037   0.02980   0.01968  -0.0657  0.0568  1.0000  -3.8626   0.0000   0.0000   0.0000   0.3019
   8.000   1.1388   0.03363   0.02345  -0.0623  0.0464  1.0000  -4.2292   0.0000   0.0000   0.0000   0.2965
   8.500   1.1938   0.03872   0.02887  -0.0612  0.0400  1.0000  -4.6311   0.0000   0.0000   0.0000   0.2924
   9.000   1.2403   0.04476   0.03534  -0.0597  0.0357  1.0000  -4.9865   0.0000   0.0000   0.0000   0.2887
   9.500   1.2605   0.05176   0.04341  -0.0548  0.0350  1.0000  -5.0566   0.0000   0.0000   0.0000   0.2834
  10.000   1.2571   0.05886   0.05145  -0.0486  0.0344  1.0000  -5.0451   0.0000   0.0000   0.0000   0.2781
  10.500   1.2333   0.06555   0.05884  -0.0418  0.0339  1.0000  -4.9890   0.0000   0.0000   0.0000   0.2729
  11.000   1.2000   0.07306   0.06690  -0.0376  0.0338  1.0000  -4.8975   0.0000   0.0000   0.0000   0.2697
  11.500   1.1622   0.08233   0.07662  -0.0374  0.0341  1.0000  -4.7663   0.0000   0.0000   0.0000   0.2699
  12.000   1.1238   0.09366   0.08830  -0.0412  0.0347  1.0000  -4.6031   0.0000   0.0000   0.0000   0.2737
  12.500   1.0901   0.10670   0.10158  -0.0479  0.0353  1.0000  -4.4272   0.0000   0.0000   0.0000   0.2804


