xflr5 v6.61

 Calculated polar for: NACA4412_7_70

 1 1 Reynolds number fixed          Mach number fixed         

 xtrf =   1.000 (top)        1.000 (bottom)
 Mach =   0.200     Re =     0.100 e 6     Ncrit =   9.000

  alpha     CL        CD       CDp       Cm    Top Xtr Bot Xtr   Cpmin    Chinge    XCp    
 ------- -------- --------- --------- -------- ------- ------- -------- --------- ---------
 -19.500  -0.6255   0.24016   0.23438   0.0233  1.0000  0.0274  -1.4862   0.0000   0.0000   0.0000   0.2760
 -19.000  -0.6080   0.23389   0.22811   0.0197  1.0000  0.0287  -1.4677   0.0000   0.0000   0.0000   0.2715
 -18.500  -0.5907   0.22779   0.22200   0.0159  1.0000  0.0301  -1.4726   0.0000   0.0000   0.0000   0.2663
 -18.000  -0.5750   0.22280   0.21703   0.0113  1.0000  0.0308  -1.5273   0.0000   0.0000   0.0000   0.2595
 -17.500  -0.5571   0.21510   0.20934   0.0087  1.0000  0.0317  -1.4596   0.0000   0.0000   0.0000   0.2558
 -17.000  -0.5400   0.20869   0.20294   0.0056  1.0000  0.0335  -1.4160   0.0000   0.0000   0.0000   0.2508
 -16.500  -0.5245   0.20307   0.19733   0.0016  1.0000  0.0354  -1.4352   0.0000   0.0000   0.0000   0.2439
 -16.000  -0.5083   0.19614   0.19043  -0.0013  1.0000  0.0364  -1.3980   0.0000   0.0000   0.0000   0.2386
 -15.500  -0.4920   0.18960   0.18389  -0.0040  1.0000  0.0384  -1.3704   0.0000   0.0000   0.0000   0.2333
 -15.000  -0.4780   0.18382   0.17814  -0.0075  1.0000  0.0404  -1.4258   0.0000   0.0000   0.0000   0.2260
 -14.500  -0.4639   0.17720   0.17154  -0.0104  1.0000  0.0413  -1.4561   0.0000   0.0000   0.0000   0.2195
 -14.000  -0.4481   0.17040   0.16476  -0.0124  1.0000  0.0436  -1.4287   0.0000   0.0000   0.0000   0.2144
 -13.500  -0.4366   0.16475   0.15914  -0.0157  1.0000  0.0459  -1.4877   0.0000   0.0000   0.0000   0.2064
 -13.000  -0.4232   0.15781   0.15224  -0.0178  1.0000  0.0472  -1.4913   0.0000   0.0000   0.0000   0.2003
 -12.500  -0.4096   0.15135   0.14579  -0.0197  1.0000  0.0501  -1.4736   0.0000   0.0000   0.0000   0.1945
 -12.000  -0.4078   0.14738   0.14189  -0.0242  1.0000  0.0520  -1.6079   0.0000   0.0000   0.0000   0.1837
 -11.500  -0.3871   0.13881   0.13334  -0.0240  1.0000  0.0561  -1.4880   0.0000   0.0000   0.0000   0.1812
 -11.000  -0.3887   0.13499   0.12962  -0.0285  1.0000  0.0581  -1.6269   0.0000   0.0000   0.0000   0.1704
 -10.500  -0.3674   0.12640   0.12104  -0.0276  1.0000  0.0617  -1.4969   0.0000   0.0000   0.0000   0.1684
 -10.000  -0.3692   0.12218   0.11692  -0.0314  1.0000  0.0644  -1.6105   0.0000   0.0000   0.0000   0.1589
  -9.750  -0.3571   0.11750   0.11225  -0.0304  1.0000  0.0658  -1.5270   0.0000   0.0000   0.0000   0.1590
  -9.500  -0.3515   0.11446   0.10924  -0.0305  1.0000  0.0680  -1.5012   0.0000   0.0000   0.0000   0.1573
  -9.250  -0.3508   0.11198   0.10682  -0.0316  1.0000  0.0701  -1.5263   0.0000   0.0000   0.0000   0.1541
  -9.000  -0.3580   0.11051   0.10544  -0.0339  1.0000  0.0710  -1.6166   0.0000   0.0000   0.0000   0.1501
  -8.750  -0.3459   0.10607   0.10101  -0.0323  1.0000  0.0727  -1.5483   0.0000   0.0000   0.0000   0.1512
  -8.500  -0.3423   0.10330   0.09829  -0.0321  1.0000  0.0751  -1.5432   0.0000   0.0000   0.0000   0.1510
  -8.250  -0.3466   0.10132   0.09638  -0.0330  1.0000  0.0774  -1.5963   0.0000   0.0000   0.0000   0.1500
  -8.000  -0.3600   0.10023   0.09543  -0.0341  1.0000  0.0780  -1.6929   0.0000   0.0000   0.0000   0.1511
  -7.750  -0.3440   0.09580   0.09099  -0.0316  1.0000  0.0814  -1.5905   0.0000   0.0000   0.0000   0.1537
  -7.500  -0.3514   0.09406   0.08935  -0.0310  1.0000  0.0841  -1.6254   0.0000   0.0000   0.0000   0.1578
  -7.250  -0.3690   0.09317   0.08860  -0.0298  1.0000  0.0850  -1.6981   0.0000   0.0000   0.0000   0.1656
  -7.000  -0.3841   0.09183   0.08738  -0.0319  1.0000  0.0854  -1.8023   0.0000   0.0000   0.0000   0.1638
  -6.750  -0.3705   0.08796   0.08350  -0.0262  1.0000  0.0896  -1.6632   0.0000   0.0000   0.0000   0.1760
  -6.500  -0.3801   0.08614   0.08178  -0.0271  1.0000  0.0921  -1.7210   0.0000   0.0000   0.0000   0.1758
  -6.000  -0.3839   0.08098   0.07673  -0.0254  1.0000  0.0958  -1.7222   0.0000   0.0000   0.0000   0.1813
  -5.750  -0.3850   0.07851   0.07430  -0.0270  1.0000  0.0996  -1.7539   0.0000   0.0000   0.0000   0.1775
  -5.500  -0.3836   0.07537   0.07118  -0.0293  1.0000  0.1018  -1.7930   0.0000   0.0000   0.0000   0.1714
  -5.250  -0.3801   0.07283   0.06867  -0.0274  1.0000  0.1050  -1.7468   0.0000   0.0000   0.0000   0.1759
  -5.000  -0.3715   0.06926   0.06506  -0.0323  1.0000  0.1099  -1.8002   0.0000   0.0000   0.0000   0.1610
  -4.750  -0.3656   0.06670   0.06253  -0.0306  1.0000  0.1137  -1.7437   0.0000   0.0000   0.0000   0.1644
  -4.500  -0.3529   0.06318   0.05895  -0.0338  1.0000  0.1194  -1.7496   0.0000   0.0000   0.0000   0.1523
  -4.250  -0.3369   0.05982   0.05549  -0.0371  1.0000  0.1273  -1.7399   0.0000   0.0000   0.0000   0.1381
  -4.000  -0.3222   0.05688   0.05249  -0.0384  1.0000  0.1366  -1.6940   0.0000   0.0000   0.0000   0.1290
  -3.750  -0.3062   0.05403   0.04957  -0.0395  1.0000  0.1465  -1.6382   0.0000   0.0000   0.0000   0.1191
  -3.000  -0.1439   0.03451   0.02824  -0.0657  0.9881  0.0954  -1.8814   0.0000   0.0000   0.0000  -0.2109
  -2.750  -0.0922   0.02910   0.02176  -0.0704  0.9843  0.0835  -1.9708   0.0000   0.0000   0.0000  -0.5215
  -2.500  -0.0437   0.02613   0.01785  -0.0741  0.9794  0.0853  -1.9264   0.0000   0.0000   0.0000  -1.4623
  -2.250   0.0009   0.02440   0.01577  -0.0772  0.9730  0.0919  -1.8153   0.0000   0.0000   0.0000  87.4298
  -2.000   0.0437   0.02312   0.01428  -0.0800  0.9656  0.1032  -1.6753   0.0000   0.0000   0.0000   2.0960
  -1.750   0.0857   0.02208   0.01309  -0.0826  0.9577  0.1190  -1.5251   0.0000   0.0000   0.0000   1.2193
  -1.500   0.1271   0.02125   0.01223  -0.0851  0.9494  0.1434  -1.3843   0.0000   0.0000   0.0000   0.9226
  -1.250   0.1680   0.02049   0.01163  -0.0875  0.9409  0.1819  -1.2332   0.0000   0.0000   0.0000   0.7732
  -1.000   0.2096   0.01971   0.01116  -0.0901  0.9328  0.2502  -1.0706   0.0000   0.0000   0.0000   0.6814
  -0.750   0.2519   0.01847   0.01071  -0.0930  0.9255  0.4171  -0.9123   0.0000   0.0000   0.0000   0.6199
  -0.500   0.2935   0.01699   0.01037  -0.0946  0.9170  1.0000  -0.7584   0.0000   0.0000   0.0000   0.5726
  -0.250   0.3343   0.01705   0.01013  -0.0969  0.9066  1.0000  -0.6097   0.0000   0.0000   0.0000   0.5397
   0.000   0.3754   0.01706   0.00992  -0.0991  0.8962  1.0000  -0.5584   0.0000   0.0000   0.0000   0.5137
   0.250   0.4183   0.01700   0.00969  -0.1017  0.8869  1.0000  -0.5858   0.0000   0.0000   0.0000   0.4924
   0.500   0.4633   0.01682   0.00938  -0.1044  0.8788  1.0000  -0.6153   0.0000   0.0000   0.0000   0.4744
   0.750   0.4991   0.01675   0.00922  -0.1054  0.8674  1.0000  -0.6401   0.0000   0.0000   0.0000   0.4601
   1.000   0.5339   0.01667   0.00906  -0.1062  0.8557  1.0000  -0.6653   0.0000   0.0000   0.0000   0.4476
   1.250   0.5678   0.01659   0.00892  -0.1067  0.8440  1.0000  -0.6906   0.0000   0.0000   0.0000   0.4364
   1.500   0.6010   0.01652   0.00880  -0.1071  0.8320  1.0000  -0.7163   0.0000   0.0000   0.0000   0.4265
   1.750   0.6335   0.01645   0.00872  -0.1073  0.8200  1.0000  -0.7425   0.0000   0.0000   0.0000   0.4175
   2.000   0.6653   0.01641   0.00864  -0.1074  0.8078  1.0000  -0.7693   0.0000   0.0000   0.0000   0.4093
   2.250   0.6965   0.01638   0.00860  -0.1073  0.7957  1.0000  -0.7968   0.0000   0.0000   0.0000   0.4018
   2.500   0.7273   0.01638   0.00861  -0.1072  0.7834  1.0000  -0.8254   0.0000   0.0000   0.0000   0.3949
   2.750   0.7579   0.01640   0.00862  -0.1070  0.7713  1.0000  -0.8555   0.0000   0.0000   0.0000   0.3885
   3.000   0.7881   0.01644   0.00866  -0.1068  0.7592  1.0000  -0.8876   0.0000   0.0000   0.0000   0.3825
   3.250   0.8154   0.01662   0.00888  -0.1062  0.7458  1.0000  -0.9880   0.0000   0.0000   0.0000   0.3770
   3.500   0.8424   0.01683   0.00913  -0.1055  0.7324  1.0000  -1.1065   0.0000   0.0000   0.0000   0.3718
   3.750   0.8691   0.01708   0.00942  -0.1048  0.7191  1.0000  -1.2358   0.0000   0.0000   0.0000   0.3670
   4.000   0.8957   0.01734   0.00975  -0.1041  0.7059  1.0000  -1.3774   0.0000   0.0000   0.0000   0.3624
   4.250   0.9222   0.01762   0.01013  -0.1034  0.6927  1.0000  -1.5289   0.0000   0.0000   0.0000   0.3580
   4.500   0.9487   0.01791   0.01050  -0.1026  0.6795  1.0000  -1.6849   0.0000   0.0000   0.0000   0.3538
   4.750   0.9752   0.01820   0.01088  -0.1018  0.6658  1.0000  -1.8571   0.0000   0.0000   0.0000   0.3498
   5.000   1.0015   0.01845   0.01127  -0.1009  0.6512  1.0000  -2.0542   0.0000   0.0000   0.0000   0.3459
   5.250   1.0290   0.01823   0.01103  -0.0992  0.6288  1.0000  -2.2818   0.0000   0.0000   0.0000   0.3413
   5.500   1.0502   0.01793   0.01071  -0.0964  0.5951  1.0000  -2.4929   0.0000   0.0000   0.0000   0.3363
   5.750   1.0716   0.01782   0.01060  -0.0939  0.5631  1.0000  -2.7161   0.0000   0.0000   0.0000   0.3319
   6.000   1.0922   0.01784   0.01066  -0.0915  0.5301  1.0000  -2.9537   0.0000   0.0000   0.0000   0.3277
   6.250   1.1093   0.01794   0.01080  -0.0885  0.4884  1.0000  -3.1743   0.0000   0.0000   0.0000   0.3234
   6.500   1.1204   0.01822   0.01098  -0.0845  0.4177  1.0000  -3.3562   0.0000   0.0000   0.0000   0.3187
   6.750   1.1084   0.02053   0.01190  -0.0778  0.1979  1.0000  -3.4013   0.0000   0.0000   0.0000   0.3131
   7.000   1.1026   0.02362   0.01413  -0.0730  0.1175  1.0000  -3.4420   0.0000   0.0000   0.0000   0.3088
   7.250   1.1080   0.02558   0.01595  -0.0694  0.0958  1.0000  -3.5389   0.0000   0.0000   0.0000   0.3050
   7.500   1.1152   0.02745   0.01771  -0.0661  0.0846  1.0000  -3.6489   0.0000   0.0000   0.0000   0.3014
   7.750   1.1279   0.02922   0.01946  -0.0636  0.0749  1.0000  -3.7782   0.0000   0.0000   0.0000   0.2982
   8.000   1.1494   0.03135   0.02150  -0.0622  0.0683  1.0000  -3.9220   0.0000   0.0000   0.0000   0.2956
   8.250   1.1759   0.03360   0.02376  -0.0616  0.0615  1.0000  -4.1034   0.0000   0.0000   0.0000   0.2936
   8.500   1.2090   0.03645   0.02666  -0.0619  0.0570  1.0000  -4.3168   0.0000   0.0000   0.0000   0.2921
   8.750   1.2362   0.03921   0.02969  -0.0612  0.0535  1.0000  -4.4862   0.0000   0.0000   0.0000   0.2901
   9.000   1.2574   0.04226   0.03304  -0.0601  0.0505  1.0000  -4.6290   0.0000   0.0000   0.0000   0.2880
   9.250   1.2745   0.04565   0.03690  -0.0581  0.0496  1.0000  -4.7049   0.0000   0.0000   0.0000   0.2856
   9.500   1.2858   0.04932   0.04107  -0.0557  0.0495  1.0000  -4.7445   0.0000   0.0000   0.0000   0.2830
  10.000   1.2944   0.05724   0.04989  -0.0502  0.0507  1.0000  -4.7627   0.0000   0.0000   0.0000   0.2780
  10.250   1.2927   0.06122   0.05422  -0.0474  0.0511  1.0000  -4.7625   0.0000   0.0000   0.0000   0.2755
  10.500   1.2868   0.06513   0.05845  -0.0445  0.0514  1.0000  -4.7535   0.0000   0.0000   0.0000   0.2732
  10.750   1.2771   0.06889   0.06247  -0.0415  0.0516  1.0000  -4.7387   0.0000   0.0000   0.0000   0.2708
  11.000   1.2667   0.07278   0.06658  -0.0388  0.0518  1.0000  -4.7255   0.0000   0.0000   0.0000   0.2687
  11.500   1.1936   0.08140   0.07600  -0.0343  0.0562  1.0000  -4.3732   0.0000   0.0000   0.0000   0.2662
  11.750   1.0590   0.07982   0.07480  -0.0253  0.0562  1.0000  -4.0442   0.0000   0.0000   0.0000   0.2615
  12.000   1.1649   0.09187   0.08673  -0.0355  0.0577  1.0000  -4.2863   0.0000   0.0000   0.0000   0.2673
  12.250   1.0115   0.09135   0.08661  -0.0278  0.0575  1.0000  -3.8825   0.0000   0.0000   0.0000   0.2645
  12.500   0.9887   0.09722   0.09261  -0.0298  0.0584  1.0000  -3.7862   0.0000   0.0000   0.0000   0.2670
  12.750   0.9315   0.10533   0.10093  -0.0358  0.0589  1.0000  -3.4974   0.0000   0.0000   0.0000   0.2752
  13.000   0.8655   0.11883   0.11456  -0.0464  0.0621  1.0000  -2.9949   0.0000   0.0000   0.0000   0.2908
  13.250   0.8576   0.12412   0.11987  -0.0483  0.0640  1.0000  -2.9201   0.0000   0.0000   0.0000   0.2934
  13.500   0.7698   0.15423   0.14986  -0.0699  0.1479  1.0000  -1.6523   0.0000   0.0000   0.0000   0.3296
  13.750   0.7800   0.15802   0.15369  -0.0699  0.1451  1.0000  -1.6902   0.0000   0.0000   0.0000   0.3280
  14.000   0.7667   0.16150   0.15714  -0.0727  0.1414  1.0000  -1.6048   0.0000   0.0000   0.0000   0.3331
  14.250   0.7867   0.16546   0.16116  -0.0713  0.1348  1.0000  -1.7037   0.0000   0.0000   0.0000   0.3285
  14.500   0.7651   0.16815   0.16380  -0.0753  0.1308  1.0000  -1.5693   0.0000   0.0000   0.0000   0.3363
  14.750   0.7771   0.17193   0.16762  -0.0750  0.1254  1.0000  -1.6230   0.0000   0.0000   0.0000   0.3341
  15.000   0.7682   0.17471   0.17040  -0.0776  0.1200  1.0000  -1.5566   0.0000   0.0000   0.0000   0.3384


