xflr5 v6.61

 Calculated polar for: NACA4412_6_80

 1 1 Reynolds number fixed          Mach number fixed         

 xtrf =   1.000 (top)        1.000 (bottom)
 Mach =   0.200     Re =     0.090 e 6     Ncrit =   7.000

  alpha     CL        CD       CDp       Cm    Top Xtr Bot Xtr   Cpmin    Chinge    XCp    
 ------- -------- --------- --------- -------- ------- ------- -------- --------- ---------
 -19.500  -0.6487   0.24284   0.23682   0.0292  1.0000  0.0229  -1.4658   0.0000   0.0000   0.0000   0.2856
 -19.000  -0.6312   0.23646   0.23043   0.0255  1.0000  0.0241  -1.4534   0.0000   0.0000   0.0000   0.2815
 -18.500  -0.6137   0.23021   0.22417   0.0217  1.0000  0.0253  -1.4651   0.0000   0.0000   0.0000   0.2768
 -18.000  -0.5966   0.22440   0.21837   0.0176  1.0000  0.0262  -1.5096   0.0000   0.0000   0.0000   0.2712
 -17.500  -0.5800   0.21814   0.21214   0.0138  1.0000  0.0266  -1.5329   0.0000   0.0000   0.0000   0.2658
 -17.000  -0.5626   0.21106   0.20506   0.0110  1.0000  0.0278  -1.4740   0.0000   0.0000   0.0000   0.2619
 -16.500  -0.5458   0.20470   0.19869   0.0077  1.0000  0.0293  -1.4594   0.0000   0.0000   0.0000   0.2567
 -16.000  -0.5300   0.19874   0.19275   0.0040  1.0000  0.0305  -1.4805   0.0000   0.0000   0.0000   0.2504
 -15.500  -0.5144   0.19215   0.18619   0.0008  1.0000  0.0313  -1.4707   0.0000   0.0000   0.0000   0.2447
 -15.000  -0.4982   0.18546   0.17950  -0.0017  1.0000  0.0335  -1.4103   0.0000   0.0000   0.0000   0.2399
 -14.500  -0.4842   0.17963   0.17369  -0.0052  1.0000  0.0353  -1.4254   0.0000   0.0000   0.0000   0.2328
 -14.000  -0.4701   0.17300   0.16710  -0.0081  1.0000  0.0361  -1.4151   0.0000   0.0000   0.0000   0.2267
 -13.500  -0.4548   0.16616   0.16028  -0.0101  1.0000  0.0381  -1.3935   0.0000   0.0000   0.0000   0.2218
 -13.000  -0.4424   0.16015   0.15429  -0.0131  1.0000  0.0402  -1.4444   0.0000   0.0000   0.0000   0.2145
 -12.500  -0.4314   0.15399   0.14818  -0.0161  1.0000  0.0411  -1.5059   0.0000   0.0000   0.0000   0.2072
 -12.000  -0.4164   0.14693   0.14114  -0.0174  1.0000  0.0435  -1.4685   0.0000   0.0000   0.0000   0.2026
 -11.500  -0.4070   0.14124   0.13549  -0.0204  1.0000  0.0458  -1.5326   0.0000   0.0000   0.0000   0.1946
 -11.000  -0.3953   0.13448   0.12879  -0.0223  1.0000  0.0471  -1.5445   0.0000   0.0000   0.0000   0.1886
 -10.500  -0.3839   0.12830   0.12265  -0.0240  1.0000  0.0507  -1.5391   0.0000   0.0000   0.0000   0.1827
 -10.000  -0.3757   0.12226   0.11668  -0.0262  1.0000  0.0530  -1.5770   0.0000   0.0000   0.0000   0.1757
  -9.500  -0.3665   0.11645   0.11094  -0.0277  1.0000  0.0571  -1.5776   0.0000   0.0000   0.0000   0.1699
  -9.000  -0.3599   0.11049   0.10508  -0.0293  1.0000  0.0591  -1.6048   0.0000   0.0000   0.0000   0.1644
  -8.500  -0.3526   0.10485   0.09954  -0.0300  1.0000  0.0630  -1.5952   0.0000   0.0000   0.0000   0.1609
  -7.500  -0.3509   0.09456   0.08951  -0.0298  1.0000  0.0687  -1.6208   0.0000   0.0000   0.0000   0.1619
  -7.000  -0.3701   0.09146   0.08667  -0.0304  1.0000  0.0710  -1.7494   0.0000   0.0000   0.0000   0.1652
  -6.500  -0.3662   0.08563   0.08094  -0.0272  1.0000  0.0741  -1.6698   0.0000   0.0000   0.0000   0.1733
  -6.000  -0.3698   0.08092   0.07634  -0.0338  1.0000  0.0781  -1.8157   0.0000   0.0000   0.0000   0.1567
  -5.500  -0.3639   0.07523   0.07074  -0.0299  1.0000  0.0836  -1.7422   0.0000   0.0000   0.0000   0.1660
  -5.000  -0.3467   0.06899   0.06446  -0.0362  1.0000  0.0926  -1.8136   0.0000   0.0000   0.0000   0.1439
  -4.500  -0.3237   0.06235   0.05777  -0.0394  1.0000  0.1016  -1.8106   0.0000   0.0000   0.0000   0.1268
  -4.000  -0.2943   0.05597   0.05127  -0.0418  1.0000  0.1113  -1.7650   0.0000   0.0000   0.0000   0.1062
  -3.500  -0.1810   0.04025   0.03446  -0.0629  0.9913  0.0658  -2.1164   0.0000   0.0000   0.0000  -0.1008
  -3.000  -0.0845   0.02952   0.02223  -0.0738  0.9829  0.0556  -2.2351   0.0000   0.0000   0.0000  -0.6298
  -2.500   0.0035   0.02415   0.01548  -0.0802  0.9733  0.0625  -2.0688   0.0000   0.0000   0.0000  23.4924
  -2.000   0.0843   0.02123   0.01186  -0.0846  0.9605  0.0785  -1.7546   0.0000   0.0000   0.0000   1.2597
  -1.500   0.1636   0.01940   0.00999  -0.0890  0.9468  0.1163  -1.4217   0.0000   0.0000   0.0000   0.7962
  -1.000   0.2378   0.01796   0.00896  -0.0925  0.9305  0.2261  -1.0926   0.0000   0.0000   0.0000   0.6398
  -0.500   0.3170   0.01544   0.00826  -0.0963  0.9167  1.0000  -0.7424   0.0000   0.0000   0.0000   0.5540
   0.000   0.3935   0.01547   0.00776  -0.0998  0.8975  1.0000  -0.5454   0.0000   0.0000   0.0000   0.5032
   0.500   0.4694   0.01535   0.00735  -0.1029  0.8788  1.0000  -0.5946   0.0000   0.0000   0.0000   0.4684
   1.000   0.5355   0.01529   0.00711  -0.1040  0.8554  1.0000  -0.6409   0.0000   0.0000   0.0000   0.4429
   1.500   0.5994   0.01524   0.00696  -0.1045  0.8307  1.0000  -0.6891   0.0000   0.0000   0.0000   0.4227
   2.000   0.6610   0.01524   0.00692  -0.1045  0.8046  1.0000  -0.7392   0.0000   0.0000   0.0000   0.4061
   2.500   0.7205   0.01533   0.00703  -0.1041  0.7772  1.0000  -0.7921   0.0000   0.0000   0.0000   0.3921
   3.000   0.7779   0.01554   0.00729  -0.1033  0.7489  1.0000  -0.9357   0.0000   0.0000   0.0000   0.3800
   3.500   0.8338   0.01589   0.00776  -0.1023  0.7204  1.0000  -1.2168   0.0000   0.0000   0.0000   0.3695
   4.000   0.8883   0.01637   0.00838  -0.1012  0.6918  1.0000  -1.5363   0.0000   0.0000   0.0000   0.3602
   4.500   0.9419   0.01693   0.00920  -0.0998  0.6630  1.0000  -1.9645   0.0000   0.0000   0.0000   0.3518
   5.000   0.9920   0.01722   0.00970  -0.0969  0.6193  1.0000  -2.4667   0.0000   0.0000   0.0000   0.3431
   5.500   1.0281   0.01720   0.00948  -0.0905  0.5177  1.0000  -2.9483   0.0000   0.0000   0.0000   0.3328
   6.000   1.0491   0.01886   0.01026  -0.0830  0.2876  1.0000  -3.3124   0.0000   0.0000   0.0000   0.3232
   6.500   1.0525   0.02447   0.01420  -0.0756  0.0772  1.0000  -3.4791   0.0000   0.0000   0.0000   0.3154
   7.000   1.0742   0.02790   0.01763  -0.0701  0.0579  1.0000  -3.7384   0.0000   0.0000   0.0000   0.3084
   7.500   1.1063   0.03156   0.02133  -0.0661  0.0466  1.0000  -4.1070   0.0000   0.0000   0.0000   0.3022
   8.000   1.1579   0.03633   0.02637  -0.0644  0.0390  1.0000  -4.4826   0.0000   0.0000   0.0000   0.2975
   8.500   1.2089   0.04251   0.03302  -0.0629  0.0353  1.0000  -4.7999   0.0000   0.0000   0.0000   0.2934
   9.000   1.2345   0.04941   0.04101  -0.0583  0.0341  1.0000  -4.8672   0.0000   0.0000   0.0000   0.2881
   9.500   1.2411   0.05614   0.04859  -0.0529  0.0323  1.0000  -4.9363   0.0000   0.0000   0.0000   0.2830
  10.000   1.2315   0.06325   0.05642  -0.0471  0.0318  1.0000  -4.9294   0.0000   0.0000   0.0000   0.2781
  10.500   1.1972   0.07065   0.06447  -0.0409  0.0326  1.0000  -4.7739   0.0000   0.0000   0.0000   0.2735
  11.000   1.1582   0.07942   0.07373  -0.0391  0.0333  1.0000  -4.6190   0.0000   0.0000   0.0000   0.2724
  11.500   1.1177   0.09031   0.08500  -0.0420  0.0339  1.0000  -4.4422   0.0000   0.0000   0.0000   0.2757
  12.000   1.0793   0.10359   0.09856  -0.0491  0.0346  1.0000  -4.2333   0.0000   0.0000   0.0000   0.2830
  12.500   1.0525   0.11775   0.11284  -0.0573  0.0354  1.0000  -4.0423   0.0000   0.0000   0.0000   0.2915
  13.000   1.0071   0.14529   0.14042  -0.0762  0.0431  1.0000  -3.1541   0.0000   0.0000   0.0000   0.3129
  13.500   1.0082   0.15715   0.15227  -0.0810  0.0465  1.0000  -3.0188   0.0000   0.0000   0.0000   0.3170


