xflr5 v6.61

 Calculated polar for: NACA4412_7_20

 1 1 Reynolds number fixed          Mach number fixed         

 xtrf =   1.000 (top)        1.000 (bottom)
 Mach =   0.200     Re =     0.070 e 6     Ncrit =   7.000

  alpha     CL        CD       CDp       Cm    Top Xtr Bot Xtr   Cpmin    Chinge    XCp    
 ------- -------- --------- --------- -------- ------- ------- -------- --------- ---------
 -27.000  -0.8949   0.33106   0.32442   0.0929  1.0000  0.0188  -1.6266   0.0000   0.0000   0.0000   0.3345
 -26.500  -0.8793   0.32531   0.31863   0.0882  1.0000  0.0195  -1.6067   0.0000   0.0000   0.0000   0.3319
 -26.000  -0.8633   0.31969   0.31298   0.0835  1.0000  0.0202  -1.6009   0.0000   0.0000   0.0000   0.3290
 -25.500  -0.8469   0.31405   0.30732   0.0787  1.0000  0.0210  -1.6025   0.0000   0.0000   0.0000   0.3260
 -25.000  -0.8302   0.30848   0.30173   0.0739  1.0000  0.0217  -1.6132   0.0000   0.0000   0.0000   0.3228
 -24.500  -0.8133   0.30328   0.29651   0.0690  1.0000  0.0221  -1.6380   0.0000   0.0000   0.0000   0.3193
 -24.000  -0.7965   0.29752   0.29076   0.0643  1.0000  0.0224  -1.6435   0.0000   0.0000   0.0000   0.3158
 -23.500  -0.7798   0.29084   0.28404   0.0603  1.0000  0.0233  -1.5888   0.0000   0.0000   0.0000   0.3131
 -23.000  -0.7626   0.28492   0.27811   0.0560  1.0000  0.0245  -1.5629   0.0000   0.0000   0.0000   0.3097
 -22.500  -0.7453   0.27920   0.27237   0.0514  1.0000  0.0258  -1.5568   0.0000   0.0000   0.0000   0.3060
 -22.000  -0.7280   0.27424   0.26741   0.0466  1.0000  0.0263  -1.5775   0.0000   0.0000   0.0000   0.3015
 -21.500  -0.7106   0.26720   0.26038   0.0428  1.0000  0.0270  -1.5274   0.0000   0.0000   0.0000   0.2982
 -21.000  -0.6930   0.26087   0.25403   0.0389  1.0000  0.0282  -1.4783   0.0000   0.0000   0.0000   0.2947
 -20.500  -0.6754   0.25481   0.24797   0.0348  1.0000  0.0295  -1.4583   0.0000   0.0000   0.0000   0.2905
 -20.000  -0.6580   0.24917   0.24232   0.0305  1.0000  0.0305  -1.4927   0.0000   0.0000   0.0000   0.2857
 -19.500  -0.6410   0.24352   0.23669   0.0261  1.0000  0.0310  -1.5300   0.0000   0.0000   0.0000   0.2806
 -19.000  -0.6230   0.23617   0.22933   0.0231  1.0000  0.0324  -1.4795   0.0000   0.0000   0.0000   0.2773
 -18.500  -0.6056   0.22996   0.22312   0.0194  1.0000  0.0340  -1.4733   0.0000   0.0000   0.0000   0.2726
 -18.000  -0.5890   0.22447   0.21764   0.0152  1.0000  0.0354  -1.5044   0.0000   0.0000   0.0000   0.2668
 -17.500  -0.5718   0.21758   0.21077   0.0120  1.0000  0.0366  -1.4793   0.0000   0.0000   0.0000   0.2623
 -17.000  -0.5547   0.21118   0.20438   0.0088  1.0000  0.0389  -1.4483   0.0000   0.0000   0.0000   0.2575
 -16.500  -0.5394   0.20578   0.19898   0.0048  1.0000  0.0405  -1.4735   0.0000   0.0000   0.0000   0.2508
 -16.000  -0.5227   0.19874   0.19197   0.0019  1.0000  0.0416  -1.4405   0.0000   0.0000   0.0000   0.2459
 -15.500  -0.5063   0.19217   0.18541  -0.0009  1.0000  0.0439  -1.3985   0.0000   0.0000   0.0000   0.2408
 -15.000  -0.4925   0.18664   0.17990  -0.0045  1.0000  0.0459  -1.4120   0.0000   0.0000   0.0000   0.2337
 -14.500  -0.4771   0.17968   0.17297  -0.0070  1.0000  0.0472  -1.4180   0.0000   0.0000   0.0000   0.2282
 -14.000  -0.4620   0.17315   0.16646  -0.0095  1.0000  0.0500  -1.4151   0.0000   0.0000   0.0000   0.2227
 -13.500  -0.4519   0.16813   0.16149  -0.0131  1.0000  0.0518  -1.4897   0.0000   0.0000   0.0000   0.2144
 -13.000  -0.4352   0.16041   0.15379  -0.0146  1.0000  0.0545  -1.4488   0.0000   0.0000   0.0000   0.2101
 -12.500  -0.4266   0.15535   0.14877  -0.0179  1.0000  0.0578  -1.5101   0.0000   0.0000   0.0000   0.2019
 -12.000  -0.4109   0.14786   0.14132  -0.0191  1.0000  0.0610  -1.4697   0.0000   0.0000   0.0000   0.1974
 -11.500  -0.4042   0.14281   0.13633  -0.0223  1.0000  0.0642  -1.5301   0.0000   0.0000   0.0000   0.1890
 -11.000  -0.3893   0.13543   0.12900  -0.0233  1.0000  0.0670  -1.4911   0.0000   0.0000   0.0000   0.1845
 -10.500  -0.3833   0.13024   0.12389  -0.0261  1.0000  0.0707  -1.5362   0.0000   0.0000   0.0000   0.1767
 -10.000  -0.3704   0.12327   0.11697  -0.0269  1.0000  0.0737  -1.5025   0.0000   0.0000   0.0000   0.1722
  -9.500  -0.3679   0.11849   0.11229  -0.0295  1.0000  0.0778  -1.5548   0.0000   0.0000   0.0000   0.1649
  -9.000  -0.3552   0.11160   0.10549  -0.0296  1.0000  0.0816  -1.5013   0.0000   0.0000   0.0000   0.1620
  -8.500  -0.3630   0.10803   0.10210  -0.0324  1.0000  0.0854  -1.5991   0.0000   0.0000   0.0000   0.1567
  -8.000  -0.3544   0.10180   0.09598  -0.0313  1.0000  0.0923  -1.5632   0.0000   0.0000   0.0000   0.1579
  -7.500  -0.3517   0.09630   0.09061  -0.0298  1.0000  0.0978  -1.5595   0.0000   0.0000   0.0000   0.1618
  -7.000  -0.3756   0.09380   0.08840  -0.0312  1.0000  0.1008  -1.6956   0.0000   0.0000   0.0000   0.1642
  -6.500  -0.3697   0.08775   0.08246  -0.0279  1.0000  0.1077  -1.6500   0.0000   0.0000   0.0000   0.1719
  -6.000  -0.3704   0.08245   0.07729  -0.0271  1.0000  0.1124  -1.6624   0.0000   0.0000   0.0000   0.1745
  -5.500  -0.3683   0.07704   0.07198  -0.0292  1.0000  0.1193  -1.7009   0.0000   0.0000   0.0000   0.1688
  -5.000  -0.3575   0.07117   0.06615  -0.0313  1.0000  0.1281  -1.7071   0.0000   0.0000   0.0000   0.1608
  -3.500  -0.2230   0.04343   0.03712  -0.0551  1.0000  0.0769  -2.0531   0.0000   0.0000   0.0000   0.0001
  -3.000  -0.1551   0.03449   0.02697  -0.0615  1.0000  0.0706  -2.1693   0.0000   0.0000   0.0000  -0.1503
  -2.500  -0.0656   0.02841   0.01963  -0.0692  0.9908  0.0758  -2.0543   0.0000   0.0000   0.0000  -0.8139
  -2.000   0.0235   0.02482   0.01493  -0.0755  0.9782  0.0930  -1.7965   0.0000   0.0000   0.0000   3.4878
  -1.500   0.1079   0.02274   0.01269  -0.0810  0.9634  0.1286  -1.4842   0.0000   0.0000   0.0000   1.0049
  -1.000   0.1890   0.02127   0.01140  -0.0858  0.9466  0.2225  -1.1594   0.0000   0.0000   0.0000   0.7056
  -0.500   0.2652   0.01845   0.01059  -0.0892  0.9294  1.0000  -0.8410   0.0000   0.0000   0.0000   0.5868
   0.000   0.3437   0.01879   0.01024  -0.0934  0.9077  1.0000  -0.5441   0.0000   0.0000   0.0000   0.5215
   0.500   0.4209   0.01899   0.01005  -0.0972  0.8859  1.0000  -0.5739   0.0000   0.0000   0.0000   0.4802
   1.000   0.5004   0.01900   0.00983  -0.1010  0.8660  1.0000  -0.6271   0.0000   0.0000   0.0000   0.4506
   1.500   0.5675   0.01909   0.00980  -0.1024  0.8417  1.0000  -0.6763   0.0000   0.0000   0.0000   0.4287
   2.000   0.6318   0.01920   0.00988  -0.1030  0.8167  1.0000  -0.7272   0.0000   0.0000   0.0000   0.4110
   2.500   0.6937   0.01935   0.01008  -0.1031  0.7914  1.0000  -0.7809   0.0000   0.0000   0.0000   0.3963
   3.000   0.7539   0.01957   0.01038  -0.1029  0.7661  1.0000  -0.8400   0.0000   0.0000   0.0000   0.3837
   3.500   0.8133   0.01985   0.01082  -0.1024  0.7409  1.0000  -1.0831   0.0000   0.0000   0.0000   0.3727
   4.000   0.8730   0.02015   0.01130  -0.1018  0.7164  1.0000  -1.3898   0.0000   0.0000   0.0000   0.3629
   4.500   0.9268   0.02075   0.01220  -0.1004  0.6891  1.0000  -1.7332   0.0000   0.0000   0.0000   0.3542
   5.000   0.9802   0.02137   0.01316  -0.0988  0.6606  1.0000  -2.1566   0.0000   0.0000   0.0000   0.3461
   5.500   1.0301   0.02114   0.01321  -0.0947  0.6103  1.0000  -2.6148   0.0000   0.0000   0.0000   0.3367
   6.000   1.0653   0.02052   0.01250  -0.0871  0.5119  1.0000  -3.0841   0.0000   0.0000   0.0000   0.3259
   6.500   1.0771   0.02204   0.01321  -0.0777  0.2849  1.0000  -3.3851   0.0000   0.0000   0.0000   0.3156
   7.000   1.0719   0.02805   0.01749  -0.0696  0.0991  1.0000  -3.5025   0.0000   0.0000   0.0000   0.3078
   7.500   1.0890   0.03192   0.02135  -0.0637  0.0749  1.0000  -3.7183   0.0000   0.0000   0.0000   0.3009
   8.000   1.1273   0.03596   0.02541  -0.0602  0.0607  1.0000  -4.0214   0.0000   0.0000   0.0000   0.2952
   8.500   1.1874   0.04140   0.03105  -0.0596  0.0507  1.0000  -4.4381   0.0000   0.0000   0.0000   0.2914
   9.000   1.2331   0.04789   0.03816  -0.0577  0.0456  1.0000  -4.7319   0.0000   0.0000   0.0000   0.2874
   9.500   1.2496   0.05476   0.04606  -0.0528  0.0431  1.0000  -4.8210   0.0000   0.0000   0.0000   0.2823
  10.000   1.2473   0.06228   0.05446  -0.0472  0.0430  1.0000  -4.8163   0.0000   0.0000   0.0000   0.2774
  10.500   1.2234   0.06956   0.06243  -0.0411  0.0435  1.0000  -4.7414   0.0000   0.0000   0.0000   0.2726
  11.000   1.1886   0.07753   0.07093  -0.0373  0.0441  1.0000  -4.6320   0.0000   0.0000   0.0000   0.2699
  11.500   1.1496   0.08717   0.08100  -0.0378  0.0448  1.0000  -4.4922   0.0000   0.0000   0.0000   0.2707
  12.000   1.1113   0.09884   0.09298  -0.0422  0.0455  1.0000  -4.3258   0.0000   0.0000   0.0000   0.2752
  12.500   1.0841   0.11151   0.10583  -0.0482  0.0462  1.0000  -4.1823   0.0000   0.0000   0.0000   0.2811
  13.000   1.0179   0.13722   0.13170  -0.0682  0.0503  1.0000  -3.4156   0.0000   0.0000   0.0000   0.3036


