xflr5 v6.61

 Calculated polar for: NACA4412_7_50

 1 1 Reynolds number fixed          Mach number fixed         

 xtrf =   1.000 (top)        1.000 (bottom)
 Mach =   0.200     Re =     0.090 e 6     Ncrit =   9.000

  alpha     CL        CD       CDp       Cm    Top Xtr Bot Xtr   Cpmin    Chinge    XCp    
 ------- -------- --------- --------- -------- ------- ------- -------- --------- ---------
 -20.500  -0.6666   0.25354   0.24748   0.0326  1.0000  0.0273  -1.4692   0.0000   0.0000   0.0000   0.2872
 -20.000  -0.6490   0.24728   0.24121   0.0288  1.0000  0.0286  -1.4587   0.0000   0.0000   0.0000   0.2832
 -19.500  -0.6314   0.24121   0.23514   0.0248  1.0000  0.0300  -1.4722   0.0000   0.0000   0.0000   0.2785
 -19.000  -0.6148   0.23613   0.23007   0.0202  1.0000  0.0308  -1.5282   0.0000   0.0000   0.0000   0.2725
 -18.500  -0.5971   0.22873   0.22267   0.0171  1.0000  0.0316  -1.4911   0.0000   0.0000   0.0000   0.2686
 -18.000  -0.5796   0.22224   0.21618   0.0138  1.0000  0.0331  -1.4565   0.0000   0.0000   0.0000   0.2642
 -17.500  -0.5628   0.21616   0.21011   0.0101  1.0000  0.0348  -1.4557   0.0000   0.0000   0.0000   0.2587
 -17.000  -0.5489   0.21182   0.20581   0.0054  1.0000  0.0357  -1.5241   0.0000   0.0000   0.0000   0.2509
 -16.500  -0.5296   0.20330   0.19727   0.0036  1.0000  0.0378  -1.4144   0.0000   0.0000   0.0000   0.2481
 -16.000  -0.5138   0.19726   0.19125   0.0001  1.0000  0.0400  -1.4067   0.0000   0.0000   0.0000   0.2419
 -15.500  -0.5015   0.19243   0.18647  -0.0041  1.0000  0.0409  -1.4558   0.0000   0.0000   0.0000   0.2337
 -15.000  -0.4827   0.18419   0.17821  -0.0057  1.0000  0.0430  -1.3802   0.0000   0.0000   0.0000   0.2304
 -14.500  -0.4684   0.17813   0.17218  -0.0087  1.0000  0.0454  -1.4110   0.0000   0.0000   0.0000   0.2237
 -14.000  -0.4575   0.17267   0.16677  -0.0124  1.0000  0.0465  -1.4860   0.0000   0.0000   0.0000   0.2155
 -13.500  -0.4401   0.16503   0.15914  -0.0137  1.0000  0.0490  -1.4304   0.0000   0.0000   0.0000   0.2115
 -13.000  -0.4295   0.15951   0.15365  -0.0170  1.0000  0.0516  -1.4846   0.0000   0.0000   0.0000   0.2035
 -12.500  -0.4156   0.15240   0.14657  -0.0188  1.0000  0.0535  -1.4705   0.0000   0.0000   0.0000   0.1980
 -12.000  -0.4048   0.14659   0.14080  -0.0213  1.0000  0.0574  -1.4875   0.0000   0.0000   0.0000   0.1909
 -11.500  -0.3927   0.13984   0.13410  -0.0230  1.0000  0.0599  -1.4774   0.0000   0.0000   0.0000   0.1851
 -11.000  -0.3841   0.13423   0.12854  -0.0254  1.0000  0.0638  -1.5012   0.0000   0.0000   0.0000   0.1777
 -10.500  -0.3733   0.12757   0.12194  -0.0269  1.0000  0.0661  -1.4914   0.0000   0.0000   0.0000   0.1721
 -10.000  -0.3657   0.12200   0.11644  -0.0288  1.0000  0.0703  -1.5026   0.0000   0.0000   0.0000   0.1656
  -9.500  -0.3566   0.11561   0.11013  -0.0298  1.0000  0.0730  -1.4877   0.0000   0.0000   0.0000   0.1609
  -9.250  -0.2670   0.10212   0.09717  -0.0336  1.0000  0.0812  -1.2311   0.0000   0.0000   0.0000   0.1209
  -9.000  -0.3543   0.11071   0.10533  -0.0317  1.0000  0.0776  -1.5186   0.0000   0.0000   0.0000   0.1554
  -8.750  -0.2788   0.09778   0.09296  -0.0348  1.0000  0.0852  -1.3324   0.0000   0.0000   0.0000   0.1224
  -8.500  -0.3453   0.10435   0.09907  -0.0314  1.0000  0.0811  -1.5108   0.0000   0.0000   0.0000   0.1543
  -8.250  -0.2722   0.09125   0.08651  -0.0328  1.0000  0.0917  -1.3008   0.0000   0.0000   0.0000   0.1266
  -8.000  -0.3567   0.10086   0.09576  -0.0329  1.0000  0.0852  -1.6171   0.0000   0.0000   0.0000   0.1538
  -7.750  -0.2759   0.08569   0.08107  -0.0310  1.0000  0.0960  -1.3148   0.0000   0.0000   0.0000   0.1352
  -7.500  -0.3506   0.09492   0.08994  -0.0304  1.0000  0.0912  -1.5782   0.0000   0.0000   0.0000   0.1594
  -7.250  -0.2986   0.08226   0.07783  -0.0288  1.0000  0.1003  -1.3952   0.0000   0.0000   0.0000   0.1516
  -7.000  -0.3668   0.09108   0.08630  -0.0279  1.0000  0.0945  -1.6328   0.0000   0.0000   0.0000   0.1709
  -6.750  -0.3069   0.07711   0.07282  -0.0244  1.0000  0.1040  -1.3841   0.0000   0.0000   0.0000   0.1688
  -6.500  -0.3783   0.08715   0.08254  -0.0282  1.0000  0.1003  -1.6933   0.0000   0.0000   0.0000   0.1727
  -6.250  -0.3365   0.07429   0.07019  -0.0204  1.0000  0.1077  -1.4492   0.0000   0.0000   0.0000   0.1881
  -6.000  -0.3782   0.08175   0.07726  -0.0254  1.0000  0.1054  -1.6660   0.0000   0.0000   0.0000   0.1805
  -5.500  -0.3782   0.07639   0.07198  -0.0269  1.0000  0.1114  -1.7000   0.0000   0.0000   0.0000   0.1767
  -5.000  -0.3688   0.07058   0.06619  -0.0292  1.0000  0.1199  -1.7060   0.0000   0.0000   0.0000   0.1689
  -4.750  -0.3568   0.06723   0.06278  -0.0340  1.0000  0.1268  -1.7392   0.0000   0.0000   0.0000   0.1530
  -4.500  -0.3502   0.06458   0.06016  -0.0320  1.0000  0.1316  -1.6798   0.0000   0.0000   0.0000   0.1570
  -4.250  -0.3374   0.06138   0.05692  -0.0339  1.0000  0.1388  -1.6609   0.0000   0.0000   0.0000   0.1479
  -4.000  -0.3230   0.05842   0.05391  -0.0355  1.0000  0.1491  -1.6255   0.0000   0.0000   0.0000   0.1384
  -2.750  -0.1554   0.03581   0.02950  -0.0594  0.9980  0.1115  -1.7919   0.0000   0.0000   0.0000  -0.1355
  -2.500  -0.0975   0.02975   0.02227  -0.0651  0.9946  0.0906  -1.9231   0.0000   0.0000   0.0000  -0.4237
  -2.000  -0.0007   0.02499   0.01616  -0.0727  0.9826  0.0995  -1.7583   0.0000   0.0000   0.0000  -107.4567
  -1.750   0.0445   0.02372   0.01467  -0.0760  0.9751  0.1124  -1.6226   0.0000   0.0000   0.0000   1.9670
  -1.500   0.0888   0.02273   0.01353  -0.0791  0.9672  0.1316  -1.4708   0.0000   0.0000   0.0000   1.1449
  -1.250   0.1321   0.02193   0.01270  -0.0820  0.9586  0.1625  -1.3191   0.0000   0.0000   0.0000   0.8731
  -1.000   0.1743   0.02117   0.01217  -0.0848  0.9497  0.2137  -1.1682   0.0000   0.0000   0.0000   0.7380
  -0.750   0.2157   0.02031   0.01175  -0.0874  0.9408  0.3129  -1.0088   0.0000   0.0000   0.0000   0.6561
  -0.500   0.2633   0.01807   0.01124  -0.0903  0.9354  1.0000  -0.8412   0.0000   0.0000   0.0000   0.5936
  -0.250   0.3064   0.01825   0.01104  -0.0932  0.9245  1.0000  -0.6813   0.0000   0.0000   0.0000   0.5541
   0.000   0.3487   0.01838   0.01092  -0.0958  0.9136  1.0000  -0.5358   0.0000   0.0000   0.0000   0.5246
   0.250   0.3900   0.01845   0.01079  -0.0982  0.9024  1.0000  -0.5599   0.0000   0.0000   0.0000   0.5013
   0.500   0.4304   0.01849   0.01069  -0.1004  0.8911  1.0000  -0.5856   0.0000   0.0000   0.0000   0.4825
   0.750   0.4703   0.01850   0.01058  -0.1024  0.8798  1.0000  -0.6121   0.0000   0.0000   0.0000   0.4667
   1.000   0.5079   0.01848   0.01049  -0.1039  0.8683  1.0000  -0.6382   0.0000   0.0000   0.0000   0.4532
   1.250   0.5443   0.01845   0.01039  -0.1050  0.8565  1.0000  -0.6643   0.0000   0.0000   0.0000   0.4414
   1.500   0.5795   0.01842   0.01031  -0.1058  0.8448  1.0000  -0.6906   0.0000   0.0000   0.0000   0.4310
   1.750   0.6139   0.01837   0.01025  -0.1065  0.8330  1.0000  -0.7174   0.0000   0.0000   0.0000   0.4216
   2.000   0.6477   0.01833   0.01020  -0.1069  0.8213  1.0000  -0.7449   0.0000   0.0000   0.0000   0.4131
   2.250   0.6812   0.01827   0.01014  -0.1073  0.8098  1.0000  -0.7735   0.0000   0.0000   0.0000   0.4053
   2.500   0.7156   0.01817   0.01006  -0.1077  0.7990  1.0000  -0.8044   0.0000   0.0000   0.0000   0.3980
   2.750   0.7478   0.01814   0.01005  -0.1078  0.7873  1.0000  -0.8352   0.0000   0.0000   0.0000   0.3914
   3.000   0.7764   0.01825   0.01020  -0.1073  0.7742  1.0000  -0.8662   0.0000   0.0000   0.0000   0.3853
   3.250   0.8045   0.01841   0.01042  -0.1068  0.7611  1.0000  -0.9718   0.0000   0.0000   0.0000   0.3797
   3.500   0.8322   0.01860   0.01067  -0.1062  0.7481  1.0000  -1.0944   0.0000   0.0000   0.0000   0.3743
   3.750   0.8597   0.01882   0.01096  -0.1056  0.7351  1.0000  -1.2267   0.0000   0.0000   0.0000   0.3693
   4.000   0.8870   0.01906   0.01128  -0.1050  0.7221  1.0000  -1.3772   0.0000   0.0000   0.0000   0.3646
   4.250   0.9143   0.01931   0.01165  -0.1043  0.7091  1.0000  -1.5326   0.0000   0.0000   0.0000   0.3601
   4.500   0.9416   0.01957   0.01201  -0.1036  0.6960  1.0000  -1.7052   0.0000   0.0000   0.0000   0.3558
   4.750   0.9688   0.01982   0.01238  -0.1028  0.6825  1.0000  -1.8940   0.0000   0.0000   0.0000   0.3516
   5.000   0.9955   0.02006   0.01278  -0.1018  0.6679  1.0000  -2.1074   0.0000   0.0000   0.0000   0.3475
   5.250   1.0240   0.01974   0.01251  -0.1002  0.6461  1.0000  -2.3428   0.0000   0.0000   0.0000   0.3428
   5.500   1.0470   0.01910   0.01183  -0.0969  0.6097  1.0000  -2.5691   0.0000   0.0000   0.0000   0.3372
   5.750   1.0691   0.01875   0.01145  -0.0941  0.5738  1.0000  -2.8049   0.0000   0.0000   0.0000   0.3323
   6.000   1.0883   0.01869   0.01147  -0.0911  0.5364  1.0000  -3.0392   0.0000   0.0000   0.0000   0.3278
   6.250   1.1039   0.01869   0.01145  -0.0876  0.4857  1.0000  -3.2537   0.0000   0.0000   0.0000   0.3230
   6.500   1.1069   0.01918   0.01161  -0.0820  0.3640  1.0000  -3.3814   0.0000   0.0000   0.0000   0.3174
   6.750   1.0900   0.02276   0.01340  -0.0753  0.1487  1.0000  -3.3788   0.0000   0.0000   0.0000   0.3121
   7.000   1.0915   0.02527   0.01549  -0.0713  0.1104  1.0000  -3.4459   0.0000   0.0000   0.0000   0.3081
   7.250   1.0983   0.02723   0.01734  -0.0680  0.0944  1.0000  -3.5431   0.0000   0.0000   0.0000   0.3044
   7.500   1.1097   0.02913   0.01917  -0.0652  0.0830  1.0000  -3.6599   0.0000   0.0000   0.0000   0.3010
   7.750   1.1295   0.03120   0.02115  -0.0635  0.0745  1.0000  -3.7958   0.0000   0.0000   0.0000   0.2981
   8.000   1.1580   0.03358   0.02349  -0.0630  0.0672  1.0000  -3.9550   0.0000   0.0000   0.0000   0.2960
   8.250   1.1891   0.03631   0.02632  -0.0629  0.0617  1.0000  -4.1552   0.0000   0.0000   0.0000   0.2942
   8.500   1.2250   0.03980   0.02980  -0.0636  0.0582  1.0000  -4.3713   0.0000   0.0000   0.0000   0.2929
   8.750   1.2419   0.04252   0.03312  -0.0613  0.0555  1.0000  -4.4582   0.0000   0.0000   0.0000   0.2901
   9.000   1.2603   0.04573   0.03669  -0.0597  0.0536  1.0000  -4.5705   0.0000   0.0000   0.0000   0.2878
   9.250   1.2737   0.04947   0.04092  -0.0575  0.0536  1.0000  -4.6162   0.0000   0.0000   0.0000   0.2852
   9.500   1.2789   0.05343   0.04546  -0.0545  0.0545  1.0000  -4.6061   0.0000   0.0000   0.0000   0.2825
   9.750   1.2798   0.05758   0.05011  -0.0514  0.0557  1.0000  -4.5855   0.0000   0.0000   0.0000   0.2798
  10.000   1.2805   0.06189   0.05478  -0.0488  0.0569  1.0000  -4.5821   0.0000   0.0000   0.0000   0.2775
  10.250   1.2824   0.06643   0.05957  -0.0468  0.0577  1.0000  -4.5994   0.0000   0.0000   0.0000   0.2756
  10.500   1.2507   0.06967   0.06340  -0.0414  0.0602  1.0000  -4.4262   0.0000   0.0000   0.0000   0.2720
  10.750   1.2285   0.07363   0.06766  -0.0383  0.0617  1.0000  -4.3416   0.0000   0.0000   0.0000   0.2698
  11.000   1.2113   0.07794   0.07218  -0.0366  0.0629  1.0000  -4.2893   0.0000   0.0000   0.0000   0.2685
  11.250   1.2029   0.08276   0.07712  -0.0358  0.0639  1.0000  -4.2748   0.0000   0.0000   0.0000   0.2678
  11.500   1.1563   0.08833   0.08307  -0.0368  0.0666  1.0000  -4.0504   0.0000   0.0000   0.0000   0.2696
  11.750   1.1241   0.09515   0.09008  -0.0399  0.0679  1.0000  -3.9008   0.0000   0.0000   0.0000   0.2730
  12.000   1.0993   0.10252   0.09757  -0.0439  0.0693  1.0000  -3.7729   0.0000   0.0000   0.0000   0.2771
  12.250   1.0773   0.11096   0.10611  -0.0488  0.0722  1.0000  -3.6147   0.0000   0.0000   0.0000   0.2823
  12.500   1.0317   0.12610   0.12129  -0.0611  0.0757  1.0000  -3.2103   0.0000   0.0000   0.0000   0.2963
  12.750   0.9723   0.15860   0.15362  -0.0857  0.1658  1.0000  -2.1545   0.0000   0.0000   0.0000   0.3262
  13.000   0.9702   0.16360   0.15859  -0.0879  0.1600  1.0000  -2.1257   0.0000   0.0000   0.0000   0.3284
  13.250   0.9948   0.16746   0.16253  -0.0850  0.1537  1.0000  -2.2482   0.0000   0.0000   0.0000   0.3228
  13.500   0.9761   0.17235   0.16733  -0.0909  0.1469  1.0000  -2.1227   0.0000   0.0000   0.0000   0.3303
  13.750   0.9894   0.17712   0.17212  -0.0905  0.1437  1.0000  -2.1711   0.0000   0.0000   0.0000   0.3283
  14.000   0.9830   0.18133   0.17629  -0.0943  0.1371  1.0000  -2.1085   0.0000   0.0000   0.0000   0.3325
  14.250   0.9871   0.18606   0.18101  -0.0961  0.1335  1.0000  -2.0989   0.0000   0.0000   0.0000   0.3336
  14.500   0.9918   0.19005   0.18501  -0.0977  0.1276  1.0000  -2.0988   0.0000   0.0000   0.0000   0.3345
  14.750   0.9928   0.19456   0.18949  -0.1004  0.1240  1.0000  -2.0647   0.0000   0.0000   0.0000   0.3368
  15.000   1.0016   0.19857   0.19351  -0.1013  0.1186  1.0000  -2.0871   0.0000   0.0000   0.0000   0.3365


