xflr5 v6.61

 Calculated polar for: NACA4412_7_20

 1 1 Reynolds number fixed          Mach number fixed         

 xtrf =   1.000 (top)        1.000 (bottom)
 Mach =   0.200     Re =     0.125 e 6     Ncrit =   9.000

  alpha     CL        CD       CDp       Cm    Top Xtr Bot Xtr   Cpmin    Chinge    XCp    
 ------- -------- --------- --------- -------- ------- ------- -------- --------- ---------
 -14.000  -0.4585   0.17049   0.16545  -0.0098  1.0000  0.0326  -1.3990   0.0000   0.0000   0.0000   0.2217
 -13.500  -0.4448   0.16415   0.15912  -0.0125  1.0000  0.0345  -1.4244   0.0000   0.0000   0.0000   0.2152
 -13.000  -0.4363   0.15914   0.15416  -0.0166  1.0000  0.0356  -1.5543   0.0000   0.0000   0.0000   0.2054
 -12.500  -0.4194   0.15111   0.14613  -0.0174  1.0000  0.0370  -1.4809   0.0000   0.0000   0.0000   0.2020
 -12.000  -0.4070   0.14478   0.13983  -0.0196  1.0000  0.0393  -1.4892   0.0000   0.0000   0.0000   0.1956
 -11.500  -0.4017   0.13984   0.13496  -0.0236  1.0000  0.0407  -1.6173   0.0000   0.0000   0.0000   0.1852
 -11.000  -0.3852   0.13201   0.12715  -0.0239  1.0000  0.0424  -1.5294   0.0000   0.0000   0.0000   0.1821
 -10.000  -0.3699   0.12021   0.11547  -0.0287  1.0000  0.0467  -1.6171   0.0000   0.0000   0.0000   0.1670
  -9.750  -0.3613   0.11670   0.11197  -0.0282  1.0000  0.0486  -1.5432   0.0000   0.0000   0.0000   0.1665
  -9.500  -0.3577   0.11392   0.10923  -0.0292  1.0000  0.0506  -1.5520   0.0000   0.0000   0.0000   0.1633
  -9.250  -0.3601   0.11193   0.10730  -0.0314  1.0000  0.0518  -1.6371   0.0000   0.0000   0.0000   0.1580
  -9.000  -0.3548   0.10833   0.10375  -0.0313  1.0000  0.0526  -1.6144   0.0000   0.0000   0.0000   0.1569
  -8.750  -0.3480   0.10515   0.10059  -0.0308  1.0000  0.0543  -1.5571   0.0000   0.0000   0.0000   0.1569
  -8.500  -0.3458   0.10249   0.09798  -0.0311  1.0000  0.0561  -1.5585   0.0000   0.0000   0.0000   0.1554
  -8.250  -0.3491   0.10040   0.09596  -0.0323  1.0000  0.0576  -1.6167   0.0000   0.0000   0.0000   0.1533
  -8.000  -0.3596   0.09904   0.09472  -0.0336  1.0000  0.0580  -1.7185   0.0000   0.0000   0.0000   0.1529
  -7.750  -0.3483   0.09485   0.09054  -0.0315  1.0000  0.0593  -1.6086   0.0000   0.0000   0.0000   0.1557
  -7.500  -0.3480   0.09244   0.08819  -0.0304  1.0000  0.0609  -1.5945   0.0000   0.0000   0.0000   0.1591
  -7.250  -0.3546   0.09059   0.08642  -0.0291  1.0000  0.0625  -1.6211   0.0000   0.0000   0.0000   0.1646
  -7.000  -0.3673   0.08921   0.08515  -0.0277  1.0000  0.0636  -1.6767   0.0000   0.0000   0.0000   0.1715
  -6.750  -0.3790   0.08755   0.08359  -0.0299  1.0000  0.0643  -1.7859   0.0000   0.0000   0.0000   0.1684
  -6.250  -0.3784   0.08208   0.07821  -0.0256  1.0000  0.0667  -1.7247   0.0000   0.0000   0.0000   0.1800
  -6.000  -0.3800   0.07973   0.07590  -0.0255  1.0000  0.0687  -1.7378   0.0000   0.0000   0.0000   0.1806
  -5.750  -0.3780   0.07664   0.07280  -0.0338  1.0000  0.0711  -1.9065   0.0000   0.0000   0.0000   0.1585
  -5.500  -0.3775   0.07380   0.07003  -0.0296  1.0000  0.0722  -1.8284   0.0000   0.0000   0.0000   0.1697
  -5.250  -0.3737   0.07128   0.06753  -0.0285  1.0000  0.0745  -1.7912   0.0000   0.0000   0.0000   0.1719
  -5.000  -0.3587   0.06709   0.06325  -0.0362  1.0000  0.0785  -1.9040   0.0000   0.0000   0.0000   0.1473
  -4.750  -0.3561   0.06496   0.06118  -0.0324  1.0000  0.0814  -1.8040   0.0000   0.0000   0.0000   0.1572
  -4.500  -0.3400   0.06115   0.05729  -0.0368  1.0000  0.0868  -1.8327   0.0000   0.0000   0.0000   0.1402
  -4.250  -0.3193   0.05743   0.05343  -0.0413  1.0000  0.0936  -1.8521   0.0000   0.0000   0.0000   0.1189
  -4.000  -0.2772   0.05274   0.04860  -0.0483  0.9946  0.1021  -1.7792   0.0000   0.0000   0.0000   0.0736
  -3.000  -0.0770   0.02892   0.02251  -0.0764  0.9763  0.0694  -2.0407   0.0000   0.0000   0.0000  -0.7500
  -2.750  -0.0298   0.02488   0.01756  -0.0800  0.9731  0.0660  -2.0770   0.0000   0.0000   0.0000  -2.4531
  -2.500   0.0118   0.02280   0.01488  -0.0823  0.9673  0.0700  -1.9802   0.0000   0.0000   0.0000   7.2689
  -2.250   0.0542   0.02122   0.01296  -0.0849  0.9617  0.0764  -1.8235   0.0000   0.0000   0.0000   1.8271
  -2.000   0.0971   0.01991   0.01140  -0.0874  0.9560  0.0862  -1.6880   0.0000   0.0000   0.0000   1.1558
  -1.750   0.1360   0.01899   0.01045  -0.0894  0.9484  0.1017  -1.5270   0.0000   0.0000   0.0000   0.9107
  -1.500   0.1756   0.01818   0.00970  -0.0915  0.9411  0.1269  -1.3492   0.0000   0.0000   0.0000   0.7736
  -1.000   0.2561   0.01656   0.00870  -0.0962  0.9266  0.2543  -1.0174   0.0000   0.0000   0.0000   0.6268
  -0.750   0.3006   0.01412   0.00836  -0.0989  0.9231  1.0000  -0.8298   0.0000   0.0000   0.0000   0.5796
  -0.500   0.3435   0.01406   0.00794  -0.1014  0.9148  1.0000  -0.6688   0.0000   0.0000   0.0000   0.5455
  -0.250   0.3825   0.01399   0.00766  -0.1033  0.9051  1.0000  -0.5478   0.0000   0.0000   0.0000   0.5199
   0.000   0.4203   0.01390   0.00739  -0.1048  0.8953  1.0000  -0.5721   0.0000   0.0000   0.0000   0.4989
   0.250   0.4580   0.01377   0.00713  -0.1062  0.8858  1.0000  -0.5968   0.0000   0.0000   0.0000   0.4812
   0.500   0.4981   0.01355   0.00680  -0.1079  0.8777  1.0000  -0.6238   0.0000   0.0000   0.0000   0.4658
   0.750   0.5323   0.01341   0.00658  -0.1085  0.8666  1.0000  -0.6481   0.0000   0.0000   0.0000   0.4528
   1.000   0.5645   0.01330   0.00640  -0.1087  0.8546  1.0000  -0.6718   0.0000   0.0000   0.0000   0.4414
   1.250   0.5959   0.01321   0.00624  -0.1088  0.8421  1.0000  -0.6958   0.0000   0.0000   0.0000   0.4311
   1.500   0.6266   0.01313   0.00613  -0.1086  0.8290  1.0000  -0.7202   0.0000   0.0000   0.0000   0.4217
   1.750   0.6565   0.01309   0.00604  -0.1084  0.8156  1.0000  -0.7449   0.0000   0.0000   0.0000   0.4132
   2.000   0.6859   0.01308   0.00599  -0.1080  0.8018  1.0000  -0.7702   0.0000   0.0000   0.0000   0.4054
   2.250   0.7147   0.01310   0.00600  -0.1076  0.7876  1.0000  -0.7962   0.0000   0.0000   0.0000   0.3983
   2.500   0.7431   0.01317   0.00604  -0.1071  0.7733  1.0000  -0.8232   0.0000   0.0000   0.0000   0.3917
   2.750   0.7708   0.01329   0.00613  -0.1065  0.7587  1.0000  -0.8512   0.0000   0.0000   0.0000   0.3855
   3.000   0.7978   0.01346   0.00629  -0.1059  0.7439  1.0000  -0.9473   0.0000   0.0000   0.0000   0.3798
   3.250   0.8248   0.01364   0.00651  -0.1053  0.7294  1.0000  -1.0738   0.0000   0.0000   0.0000   0.3745
   3.500   0.8519   0.01386   0.00673  -0.1046  0.7151  1.0000  -1.2140   0.0000   0.0000   0.0000   0.3695
   3.750   0.8789   0.01409   0.00698  -0.1040  0.7012  1.0000  -1.3661   0.0000   0.0000   0.0000   0.3648
   4.000   0.9058   0.01434   0.00729  -0.1034  0.6874  1.0000  -1.5271   0.0000   0.0000   0.0000   0.3604
   4.250   0.9324   0.01461   0.00761  -0.1027  0.6734  1.0000  -1.7087   0.0000   0.0000   0.0000   0.3561
   4.500   0.9586   0.01489   0.00797  -0.1019  0.6590  1.0000  -1.9176   0.0000   0.0000   0.0000   0.3521
   4.750   0.9825   0.01508   0.00825  -0.1005  0.6388  1.0000  -2.1274   0.0000   0.0000   0.0000   0.3478
   5.000   1.0043   0.01495   0.00807  -0.0981  0.6048  1.0000  -2.3431   0.0000   0.0000   0.0000   0.3428
   5.250   1.0254   0.01497   0.00801  -0.0957  0.5696  1.0000  -2.5717   0.0000   0.0000   0.0000   0.3382
   5.500   1.0462   0.01513   0.00821  -0.0936  0.5357  1.0000  -2.8154   0.0000   0.0000   0.0000   0.3341
   5.750   1.0653   0.01536   0.00843  -0.0912  0.4927  1.0000  -3.0526   0.0000   0.0000   0.0000   0.3299
   6.000   1.0787   0.01581   0.00871  -0.0878  0.4153  1.0000  -3.2520   0.0000   0.0000   0.0000   0.3254
   6.250   1.0670   0.01879   0.00998  -0.0815  0.1476  1.0000  -3.2952   0.0000   0.0000   0.0000   0.3201
   6.500   1.0697   0.02136   0.01198  -0.0776  0.0883  1.0000  -3.3704   0.0000   0.0000   0.0000   0.3160
   6.750   1.0792   0.02305   0.01360  -0.0746  0.0725  1.0000  -3.4958   0.0000   0.0000   0.0000   0.3123
   7.000   1.0887   0.02480   0.01527  -0.0716  0.0646  1.0000  -3.6186   0.0000   0.0000   0.0000   0.3087
   7.250   1.1024   0.02656   0.01697  -0.0693  0.0578  1.0000  -3.7554   0.0000   0.0000   0.0000   0.3055
   7.500   1.1216   0.02848   0.01884  -0.0677  0.0521  1.0000  -3.9228   0.0000   0.0000   0.0000   0.3027
   7.750   1.1472   0.03047   0.02097  -0.0667  0.0480  1.0000  -4.1141   0.0000   0.0000   0.0000   0.3002
   8.000   1.1731   0.03275   0.02338  -0.0660  0.0437  1.0000  -4.3175   0.0000   0.0000   0.0000   0.2980
   8.250   1.2037   0.03555   0.02624  -0.0660  0.0415  1.0000  -4.5253   0.0000   0.0000   0.0000   0.2962
   8.500   1.2325   0.03913   0.03007  -0.0656  0.0406  1.0000  -4.6712   0.0000   0.0000   0.0000   0.2944
   8.750   1.2504   0.04231   0.03377  -0.0635  0.0402  1.0000  -4.7389   0.0000   0.0000   0.0000   0.2917
   9.000   1.2603   0.04544   0.03748  -0.0607  0.0393  1.0000  -4.7716   0.0000   0.0000   0.0000   0.2887
   9.250   1.2677   0.04890   0.04144  -0.0579  0.0388  1.0000  -4.7965   0.0000   0.0000   0.0000   0.2859
   9.500   1.2737   0.05295   0.04590  -0.0552  0.0396  1.0000  -4.8027   0.0000   0.0000   0.0000   0.2834
   9.750   1.2860   0.05778   0.05089  -0.0539  0.0406  1.0000  -4.8639   0.0000   0.0000   0.0000   0.2817
  10.000   1.2632   0.06193   0.05589  -0.0482  0.0445  1.0000  -4.6067   0.0000   0.0000   0.0000   0.2777
  10.750   1.1289   0.06529   0.06023  -0.0300  0.0472  1.0000  -4.2548   0.0000   0.0000   0.0000   0.2656
  11.000   1.0924   0.07014   0.06538  -0.0282  0.0480  1.0000  -4.1167   0.0000   0.0000   0.0000   0.2647
  11.250   1.0608   0.07562   0.07107  -0.0280  0.0486  1.0000  -4.0069   0.0000   0.0000   0.0000   0.2650
  11.500   1.0303   0.08150   0.07715  -0.0290  0.0489  1.0000  -3.9017   0.0000   0.0000   0.0000   0.2664
  11.750   0.9996   0.08782   0.08363  -0.0311  0.0491  1.0000  -3.7878   0.0000   0.0000   0.0000   0.2691
  12.000   0.9678   0.09463   0.09058  -0.0342  0.0493  1.0000  -3.6546   0.0000   0.0000   0.0000   0.2732
  12.250   0.9369   0.10185   0.09792  -0.0381  0.0503  1.0000  -3.4975   0.0000   0.0000   0.0000   0.2784
  12.500   0.9194   0.10710   0.10322  -0.0400  0.0514  1.0000  -3.4187   0.0000   0.0000   0.0000   0.2811
  12.750   0.9862   0.15363   0.14946  -0.0824  0.1128  1.0000  -2.3313   0.0000   0.0000   0.0000   0.3215
  13.000   0.9968   0.15725   0.15310  -0.0815  0.1083  1.0000  -2.3987   0.0000   0.0000   0.0000   0.3193
  13.250   0.9946   0.16211   0.15795  -0.0843  0.1020  1.0000  -2.3672   0.0000   0.0000   0.0000   0.3221
  13.500   0.9877   0.16828   0.16407  -0.0887  0.0981  1.0000  -2.2775   0.0000   0.0000   0.0000   0.3269
  13.750   1.0087   0.17049   0.16634  -0.0851  0.0932  1.0000  -2.4381   0.0000   0.0000   0.0000   0.3211
  14.000   0.9910   0.17777   0.17352  -0.0933  0.0893  1.0000  -2.2352   0.0000   0.0000   0.0000   0.3307
  14.250   1.0058   0.18089   0.17669  -0.0918  0.0859  1.0000  -2.3343   0.0000   0.0000   0.0000   0.3275
  14.500   0.9975   0.18712   0.18285  -0.0977  0.0830  1.0000  -2.1949   0.0000   0.0000   0.0000   0.3339
  14.750   1.0051   0.19102   0.18676  -0.0988  0.0794  1.0000  -2.2193   0.0000   0.0000   0.0000   0.3339
  15.000   1.0110   0.19575   0.19149  -0.1004  0.0775  1.0000  -2.2269   0.0000   0.0000   0.0000   0.3346


