xflr5 v6.61

 Calculated polar for: NACA4412_9_00

 1 1 Reynolds number fixed          Mach number fixed         

 xtrf =   1.000 (top)        1.000 (bottom)
 Mach =   0.200     Re =     0.090 e 6     Ncrit =   7.000

  alpha     CL        CD       CDp       Cm    Top Xtr Bot Xtr   Cpmin    Chinge    XCp    
 ------- -------- --------- --------- -------- ------- ------- -------- --------- ---------
 -21.500  -0.6627   0.26084   0.25464   0.0307  1.0000  0.0272  -1.5365   0.0000   0.0000   0.0000   0.2800
 -21.000  -0.6451   0.25477   0.24856   0.0269  1.0000  0.0284  -1.5091   0.0000   0.0000   0.0000   0.2759
 -20.500  -0.6277   0.24878   0.24257   0.0229  1.0000  0.0297  -1.5013   0.0000   0.0000   0.0000   0.2712
 -20.000  -0.6109   0.24334   0.23713   0.0184  1.0000  0.0307  -1.5327   0.0000   0.0000   0.0000   0.2653
 -19.500  -0.5934   0.23654   0.23035   0.0151  1.0000  0.0316  -1.4900   0.0000   0.0000   0.0000   0.2610
 -19.000  -0.5759   0.23032   0.22413   0.0117  1.0000  0.0334  -1.4425   0.0000   0.0000   0.0000   0.2563
 -18.500  -0.5591   0.22440   0.21821   0.0078  1.0000  0.0351  -1.4379   0.0000   0.0000   0.0000   0.2504
 -18.000  -0.5451   0.21970   0.21354   0.0031  1.0000  0.0357  -1.5202   0.0000   0.0000   0.0000   0.2425
 -17.500  -0.5257   0.21167   0.20552   0.0011  1.0000  0.0370  -1.4479   0.0000   0.0000   0.0000   0.2393
 -17.000  -0.5091   0.20546   0.19931  -0.0020  1.0000  0.0389  -1.4482   0.0000   0.0000   0.0000   0.2335
 -16.500  -0.4947   0.19982   0.19369  -0.0059  1.0000  0.0405  -1.5066   0.0000   0.0000   0.0000   0.2258
 -16.000  -0.4787   0.19304   0.18694  -0.0087  1.0000  0.0415  -1.5039   0.0000   0.0000   0.0000   0.2199
 -15.500  -0.4623   0.18661   0.18052  -0.0111  1.0000  0.0441  -1.4712   0.0000   0.0000   0.0000   0.2143
 -15.000  -0.4527   0.18185   0.17580  -0.0154  1.0000  0.0462  -1.5627   0.0000   0.0000   0.0000   0.2046
 -14.500  -0.4339   0.17401   0.16797  -0.0166  1.0000  0.0484  -1.4781   0.0000   0.0000   0.0000   0.2006
 -14.000  -0.4212   0.16800   0.16199  -0.0194  1.0000  0.0511  -1.4909   0.0000   0.0000   0.0000   0.1930
 -13.500  -0.4122   0.16220   0.15625  -0.0227  1.0000  0.0523  -1.5440   0.0000   0.0000   0.0000   0.1844
 -13.000  -0.3955   0.15512   0.14919  -0.0237  1.0000  0.0550  -1.4678   0.0000   0.0000   0.0000   0.1796
 -12.500  -0.3886   0.14968   0.14379  -0.0269  1.0000  0.0578  -1.5179   0.0000   0.0000   0.0000   0.1708
 -12.000  -0.3750   0.14264   0.13679  -0.0281  1.0000  0.0596  -1.4962   0.0000   0.0000   0.0000   0.1653
 -11.500  -0.3678   0.13707   0.13128  -0.0304  1.0000  0.0639  -1.5380   0.0000   0.0000   0.0000   0.1578
 -11.000  -0.3557   0.13043   0.12469  -0.0313  1.0000  0.0671  -1.5184   0.0000   0.0000   0.0000   0.1529
 -10.500  -0.3559   0.12550   0.11986  -0.0342  1.0000  0.0709  -1.6070   0.0000   0.0000   0.0000   0.1452
 -10.000  -0.3421   0.11854   0.11294  -0.0339  1.0000  0.0736  -1.5569   0.0000   0.0000   0.0000   0.1423
  -9.500  -0.3440   0.11359   0.10811  -0.0360  1.0000  0.0777  -1.6269   0.0000   0.0000   0.0000   0.1375
  -9.000  -0.3353   0.10726   0.10187  -0.0354  1.0000  0.0804  -1.5929   0.0000   0.0000   0.0000   0.1369
  -8.500  -0.3421   0.10267   0.09744  -0.0363  1.0000  0.0848  -1.6539   0.0000   0.0000   0.0000   0.1372
  -8.000  -0.3390   0.09721   0.09210  -0.0343  1.0000  0.0891  -1.6097   0.0000   0.0000   0.0000   0.1427
  -7.500  -0.3698   0.09444   0.08957  -0.0323  1.0000  0.0926  -1.7270   0.0000   0.0000   0.0000   0.1576
  -7.000  -0.3750   0.08980   0.08507  -0.0274  1.0000  0.0967  -1.6668   0.0000   0.0000   0.0000   0.1724
  -6.500  -0.4034   0.08586   0.08132  -0.0294  1.0000  0.1006  -1.8096   0.0000   0.0000   0.0000   0.1733
  -6.000  -0.4035   0.08064   0.07620  -0.0252  1.0000  0.1038  -1.7586   0.0000   0.0000   0.0000   0.1842
  -5.500  -0.4061   0.07432   0.06990  -0.0304  1.0000  0.1096  -1.8589   0.0000   0.0000   0.0000   0.1720
  -4.500  -0.2632   0.04267   0.03675  -0.0663  0.9777  0.0633  -2.4008   0.0000   0.0000   0.0000  -0.0070
  -4.000  -0.1844   0.03234   0.02498  -0.0755  0.9664  0.0630  -2.4463   0.0000   0.0000   0.0000  -0.1669
  -3.500  -0.1036   0.02696   0.01826  -0.0812  0.9553  0.0710  -2.2981   0.0000   0.0000   0.0000  -0.5463
  -3.000  -0.0304   0.02426   0.01506  -0.0846  0.9406  0.0843  -2.0151   0.0000   0.0000   0.0000  -2.5675
  -2.500   0.0460   0.02229   0.01285  -0.0882  0.9268  0.1072  -1.7255   0.0000   0.0000   0.0000   2.1882
  -2.000   0.1224   0.02073   0.01135  -0.0918  0.9130  0.1469  -1.4067   0.0000   0.0000   0.0000   1.0055
  -1.500   0.1909   0.01953   0.01041  -0.0938  0.8955  0.2193  -1.1342   0.0000   0.0000   0.0000   0.7442
  -1.000   0.2656   0.01805   0.00958  -0.0971  0.8807  0.3914  -0.8526   0.0000   0.0000   0.0000   0.6166
  -0.500   0.3515   0.01611   0.00888  -0.1010  0.8671  1.0000  -0.5885   0.0000   0.0000   0.0000   0.5375
   0.000   0.4162   0.01604   0.00840  -0.1018  0.8453  1.0000  -0.6323   0.0000   0.0000   0.0000   0.4941
   0.500   0.4839   0.01587   0.00795  -0.1030  0.8252  1.0000  -0.6803   0.0000   0.0000   0.0000   0.4618
   1.000   0.5466   0.01580   0.00766  -0.1032  0.8024  1.0000  -0.7278   0.0000   0.0000   0.0000   0.4373
   1.500   0.6054   0.01586   0.00757  -0.1028  0.7778  1.0000  -0.7757   0.0000   0.0000   0.0000   0.4178
   2.000   0.6639   0.01599   0.00757  -0.1024  0.7533  1.0000  -0.8263   0.0000   0.0000   0.0000   0.4017
   2.500   0.7232   0.01616   0.00764  -0.1020  0.7300  1.0000  -0.8818   0.0000   0.0000   0.0000   0.3881
   3.000   0.7774   0.01654   0.00798  -0.1009  0.7048  1.0000  -0.9387   0.0000   0.0000   0.0000   0.3765
   3.500   0.8309   0.01703   0.00848  -0.0998  0.6804  1.0000  -1.0120   0.0000   0.0000   0.0000   0.3663
   4.000   0.8866   0.01749   0.00894  -0.0990  0.6580  1.0000  -1.2053   0.0000   0.0000   0.0000   0.3573
   4.500   0.9376   0.01814   0.00973  -0.0975  0.6337  1.0000  -1.4402   0.0000   0.0000   0.0000   0.3491
   5.000   0.9892   0.01880   0.01053  -0.0960  0.6097  1.0000  -1.7065   0.0000   0.0000   0.0000   0.3416
   5.500   1.0413   0.01940   0.01126  -0.0943  0.5841  1.0000  -2.0135   0.0000   0.0000   0.0000   0.3346
   6.000   1.0873   0.01976   0.01177  -0.0912  0.5459  1.0000  -2.3215   0.0000   0.0000   0.0000   0.3273
   6.500   1.1275   0.01998   0.01204  -0.0868  0.4947  1.0000  -2.6801   0.0000   0.0000   0.0000   0.3198
   7.000   1.1624   0.02048   0.01267  -0.0819  0.4362  1.0000  -3.0453   0.0000   0.0000   0.0000   0.3126
   7.500   1.1857   0.02146   0.01357  -0.0754  0.3391  1.0000  -3.3651   0.0000   0.0000   0.0000   0.3051
   8.000   1.1775   0.02519   0.01607  -0.0660  0.1602  1.0000  -3.5402   0.0000   0.0000   0.0000   0.2968
   8.500   1.1704   0.02933   0.01972  -0.0575  0.1023  1.0000  -3.7051   0.0000   0.0000   0.0000   0.2893
   9.000   1.1731   0.03307   0.02342  -0.0510  0.0816  1.0000  -3.9093   0.0000   0.0000   0.0000   0.2830
   9.500   1.1843   0.03679   0.02716  -0.0460  0.0689  1.0000  -4.1501   0.0000   0.0000   0.0000   0.2777
  10.000   1.2094   0.04046   0.03082  -0.0424  0.0588  1.0000  -4.4532   0.0000   0.0000   0.0000   0.2732
  10.500   1.2564   0.04468   0.03520  -0.0405  0.0512  1.0000  -4.8056   0.0000   0.0000   0.0000   0.2697
  11.000   1.2879   0.04961   0.04054  -0.0380  0.0452  1.0000  -5.1238   0.0000   0.0000   0.0000   0.2662
  11.500   1.3045   0.05570   0.04732  -0.0346  0.0424  1.0000  -5.3272   0.0000   0.0000   0.0000   0.2626
  12.000   1.3037   0.06214   0.05423  -0.0312  0.0401  1.0000  -5.4810   0.0000   0.0000   0.0000   0.2592
  12.500   1.2750   0.06991   0.06272  -0.0283  0.0390  1.0000  -5.4375   0.0000   0.0000   0.0000   0.2567
  13.000   1.2418   0.07912   0.07251  -0.0281  0.0384  1.0000  -5.3606   0.0000   0.0000   0.0000   0.2564
  13.500   1.2022   0.09037   0.08427  -0.0310  0.0383  1.0000  -5.2132   0.0000   0.0000   0.0000   0.2588
  14.000   1.1563   0.10427   0.09863  -0.0377  0.0389  1.0000  -4.9755   0.0000   0.0000   0.0000   0.2648
  14.500   1.1114   0.12077   0.11545  -0.0476  0.0398  1.0000  -4.6709   0.0000   0.0000   0.0000   0.2744
  15.000   1.0759   0.13841   0.13326  -0.0587  0.0406  1.0000  -4.3423   0.0000   0.0000   0.0000   0.2857
  15.500   1.0086   0.17588   0.17067  -0.0824  0.0488  1.0000  -3.0279   0.0000   0.0000   0.0000   0.3138
  16.000   1.0074   0.18930   0.18404  -0.0897  0.0499  1.0000  -2.8093   0.0000   0.0000   0.0000   0.3206
  16.500   1.0194   0.19868   0.19343  -0.0932  0.0519  1.0000  -2.7923   0.0000   0.0000   0.0000   0.3224
  19.000   0.7857   0.22223   0.21775  -0.0901  0.0784  1.0000  -1.4551   0.0000   0.0000   0.0000   0.3467
  19.500   0.7828   0.22912   0.22465  -0.0946  0.0740  1.0000  -1.3456   0.0000   0.0000   0.0000   0.3524
  20.000   0.7891   0.23630   0.23186  -0.0974  0.0694  1.0000  -1.3279   0.0000   0.0000   0.0000   0.3542


