xflr5 v6.61

 Calculated polar for: NACA4412_6_80

 1 1 Reynolds number fixed          Mach number fixed         

 xtrf =   1.000 (top)        1.000 (bottom)
 Mach =   0.200     Re =     0.090 e 6     Ncrit =   9.000

  alpha     CL        CD       CDp       Cm    Top Xtr Bot Xtr   Cpmin    Chinge    XCp    
 ------- -------- --------- --------- -------- ------- ------- -------- --------- ---------
 -16.500  -0.5462   0.20502   0.19903   0.0076  1.0000  0.0341  -1.4385   0.0000   0.0000   0.0000   0.2567
 -16.000  -0.5308   0.19945   0.19348   0.0037  1.0000  0.0354  -1.4692   0.0000   0.0000   0.0000   0.2499
 -15.500  -0.5145   0.19232   0.18637   0.0010  1.0000  0.0366  -1.4305   0.0000   0.0000   0.0000   0.2451
 -15.000  -0.4986   0.18585   0.17990  -0.0018  1.0000  0.0391  -1.3897   0.0000   0.0000   0.0000   0.2399
 -14.500  -0.4865   0.18098   0.17507  -0.0059  1.0000  0.0407  -1.4359   0.0000   0.0000   0.0000   0.2316
 -14.000  -0.4695   0.17300   0.16710  -0.0076  1.0000  0.0423  -1.3529   0.0000   0.0000   0.0000   0.2277
 -13.500  -0.4554   0.16669   0.16082  -0.0102  1.0000  0.0449  -1.3697   0.0000   0.0000   0.0000   0.2216
 -13.000  -0.4476   0.16230   0.15648  -0.0144  1.0000  0.0462  -1.4803   0.0000   0.0000   0.0000   0.2123
 -12.500  -0.4292   0.15373   0.14792  -0.0151  1.0000  0.0486  -1.4146   0.0000   0.0000   0.0000   0.2092
 -12.000  -0.4186   0.14798   0.14221  -0.0180  1.0000  0.0514  -1.4639   0.0000   0.0000   0.0000   0.2017
 -11.500  -0.4069   0.14127   0.13555  -0.0200  1.0000  0.0530  -1.4834   0.0000   0.0000   0.0000   0.1956
 -11.000  -0.3947   0.13494   0.12926  -0.0218  1.0000  0.0565  -1.4810   0.0000   0.0000   0.0000   0.1897
 -10.500  -0.3880   0.12935   0.12374  -0.0247  1.0000  0.0586  -1.5466   0.0000   0.0000   0.0000   0.1816
 -10.000  -0.3759   0.12298   0.11742  -0.0258  1.0000  0.0635  -1.5221   0.0000   0.0000   0.0000   0.1766
  -9.750  -0.3785   0.12149   0.11599  -0.0283  1.0000  0.0644  -1.6031   0.0000   0.0000   0.0000   0.1709
  -9.500  -0.3663   0.11667   0.11119  -0.0272  1.0000  0.0665  -1.5234   0.0000   0.0000   0.0000   0.1713
  -9.000  -0.3631   0.11186   0.10648  -0.0296  1.0000  0.0707  -1.5772   0.0000   0.0000   0.0000   0.1645
  -8.500  -0.3524   0.10523   0.09993  -0.0294  1.0000  0.0741  -1.5381   0.0000   0.0000   0.0000   0.1626
  -8.250  -0.3516   0.10283   0.09760  -0.0300  1.0000  0.0766  -1.5537   0.0000   0.0000   0.0000   0.1610
  -8.000  -0.3594   0.10154   0.09642  -0.0313  1.0000  0.0779  -1.6276   0.0000   0.0000   0.0000   0.1597
  -7.750  -0.3530   0.09778   0.09271  -0.0302  1.0000  0.0795  -1.5856   0.0000   0.0000   0.0000   0.1612
  -7.500  -0.3509   0.09513   0.09011  -0.0293  1.0000  0.0821  -1.5617   0.0000   0.0000   0.0000   0.1634
  -7.250  -0.3588   0.09356   0.08864  -0.0286  1.0000  0.0842  -1.5964   0.0000   0.0000   0.0000   0.1673
  -7.000  -0.3714   0.09247   0.08769  -0.0297  1.0000  0.0852  -1.6792   0.0000   0.0000   0.0000   0.1674
  -6.750  -0.3662   0.08886   0.08413  -0.0272  1.0000  0.0871  -1.6170   0.0000   0.0000   0.0000   0.1732
  -6.500  -0.3666   0.08646   0.08179  -0.0264  1.0000  0.0899  -1.6010   0.0000   0.0000   0.0000   0.1758
  -6.250  -0.3720   0.08463   0.08004  -0.0292  1.0000  0.0925  -1.6715   0.0000   0.0000   0.0000   0.1694
  -6.000  -0.3711   0.08159   0.07706  -0.0282  1.0000  0.0942  -1.6587   0.0000   0.0000   0.0000   0.1720
  -5.750  -0.3688   0.07901   0.07452  -0.0270  1.0000  0.0979  -1.6424   0.0000   0.0000   0.0000   0.1749
  -5.250  -0.3622   0.07352   0.06909  -0.0289  1.0000  0.1064  -1.6687   0.0000   0.0000   0.0000   0.1686
  -5.000  -0.3554   0.07040   0.06598  -0.0310  1.0000  0.1110  -1.6885   0.0000   0.0000   0.0000   0.1613
  -4.500  -0.3339   0.06438   0.05992  -0.0346  1.0000  0.1244  -1.6880   0.0000   0.0000   0.0000   0.1450
  -4.250  -0.3222   0.06117   0.05669  -0.0355  1.0000  0.1299  -1.6714   0.0000   0.0000   0.0000   0.1385
  -4.000  -0.3056   0.05791   0.05335  -0.0379  1.0000  0.1382  -1.6606   0.0000   0.0000   0.0000   0.1245
  -3.750  -0.2876   0.05478   0.05014  -0.0400  1.0000  0.1479  -1.6363   0.0000   0.0000   0.0000   0.1095
  -2.500  -0.1048   0.03168   0.02474  -0.0628  1.0000  0.0920  -1.8589   0.0000   0.0000   0.0000  -0.3536
  -2.250  -0.0732   0.02892   0.02147  -0.0641  1.0000  0.0906  -1.8384   0.0000   0.0000   0.0000  -0.6323
  -2.000  -0.0277   0.02598   0.01779  -0.0673  0.9968  0.0886  -1.8157   0.0000   0.0000   0.0000  -2.1959
  -1.750   0.0207   0.02415   0.01543  -0.0711  0.9907  0.0965  -1.6924   0.0000   0.0000   0.0000   3.7007
  -1.500   0.0681   0.02278   0.01359  -0.0745  0.9839  0.1087  -1.5689   0.0000   0.0000   0.0000   1.3500
  -1.250   0.1130   0.02175   0.01253  -0.0778  0.9763  0.1294  -1.4197   0.0000   0.0000   0.0000   0.9413
  -1.000   0.1574   0.02090   0.01177  -0.0810  0.9681  0.1662  -1.2561   0.0000   0.0000   0.0000   0.7663
  -0.750   0.2003   0.02010   0.01126  -0.0840  0.9594  0.2394  -1.1080   0.0000   0.0000   0.0000   0.6702
  -0.500   0.2450   0.01738   0.01074  -0.0867  0.9546  1.0000  -0.9424   0.0000   0.0000   0.0000   0.6043
  -0.250   0.2871   0.01765   0.01049  -0.0894  0.9425  1.0000  -0.7640   0.0000   0.0000   0.0000   0.5615
   0.000   0.3291   0.01787   0.01042  -0.0922  0.9307  1.0000  -0.6047   0.0000   0.0000   0.0000   0.5299
   0.250   0.3709   0.01806   0.01038  -0.0949  0.9190  1.0000  -0.5274   0.0000   0.0000   0.0000   0.5053
   0.500   0.4124   0.01818   0.01034  -0.0974  0.9074  1.0000  -0.5532   0.0000   0.0000   0.0000   0.4855
   0.750   0.4535   0.01826   0.01030  -0.0998  0.8958  1.0000  -0.5795   0.0000   0.0000   0.0000   0.4691
   1.000   0.4950   0.01827   0.01023  -0.1021  0.8845  1.0000  -0.6069   0.0000   0.0000   0.0000   0.4552
   1.250   0.5355   0.01825   0.01015  -0.1042  0.8734  1.0000  -0.6348   0.0000   0.0000   0.0000   0.4432
   1.500   0.5745   0.01818   0.01005  -0.1058  0.8622  1.0000  -0.6629   0.0000   0.0000   0.0000   0.4325
   1.750   0.6135   0.01805   0.00992  -0.1072  0.8516  1.0000  -0.6921   0.0000   0.0000   0.0000   0.4230
   2.000   0.6511   0.01791   0.00978  -0.1083  0.8407  1.0000  -0.7218   0.0000   0.0000   0.0000   0.4144
   2.250   0.6839   0.01788   0.00977  -0.1086  0.8279  1.0000  -0.7493   0.0000   0.0000   0.0000   0.4066
   2.500   0.7155   0.01787   0.00981  -0.1086  0.8150  1.0000  -0.7777   0.0000   0.0000   0.0000   0.3995
   2.750   0.7463   0.01789   0.00988  -0.1085  0.8019  1.0000  -0.8070   0.0000   0.0000   0.0000   0.3928
   3.000   0.7762   0.01796   0.00999  -0.1082  0.7886  1.0000  -0.9114   0.0000   0.0000   0.0000   0.3867
   3.250   0.8054   0.01806   0.01019  -0.1078  0.7752  1.0000  -1.0448   0.0000   0.0000   0.0000   0.3809
   3.500   0.8339   0.01820   0.01040  -0.1073  0.7617  1.0000  -1.1932   0.0000   0.0000   0.0000   0.3755
   3.750   0.8620   0.01838   0.01067  -0.1067  0.7482  1.0000  -1.3493   0.0000   0.0000   0.0000   0.3704
   4.000   0.8897   0.01859   0.01099  -0.1060  0.7345  1.0000  -1.5118   0.0000   0.0000   0.0000   0.3656
   4.250   0.9171   0.01882   0.01138  -0.1053  0.7207  1.0000  -1.7195   0.0000   0.0000   0.0000   0.3610
   4.500   0.9444   0.01907   0.01177  -0.1045  0.7065  1.0000  -1.9391   0.0000   0.0000   0.0000   0.3566
   4.750   0.9716   0.01930   0.01215  -0.1036  0.6917  1.0000  -2.1852   0.0000   0.0000   0.0000   0.3523
   5.000   0.9980   0.01885   0.01180  -0.1012  0.6645  1.0000  -2.4594   0.0000   0.0000   0.0000   0.3469
   5.250   1.0210   0.01786   0.01067  -0.0971  0.6170  1.0000  -2.7385   0.0000   0.0000   0.0000   0.3402
   5.500   1.0407   0.01766   0.01046  -0.0939  0.5737  1.0000  -2.9891   0.0000   0.0000   0.0000   0.3350
   5.750   1.0568   0.01764   0.01043  -0.0902  0.5172  1.0000  -3.2120   0.0000   0.0000   0.0000   0.3298
   6.000   1.0584   0.01832   0.01052  -0.0839  0.3530  1.0000  -3.3214   0.0000   0.0000   0.0000   0.3234
   6.500   1.0523   0.02459   0.01463  -0.0746  0.0974  1.0000  -3.3928   0.0000   0.0000   0.0000   0.3145
   6.750   1.0625   0.02650   0.01645  -0.0716  0.0831  1.0000  -3.4965   0.0000   0.0000   0.0000   0.3108
   7.000   1.0781   0.02848   0.01835  -0.0692  0.0744  1.0000  -3.6155   0.0000   0.0000   0.0000   0.3073
   7.250   1.1012   0.03068   0.02044  -0.0680  0.0659  1.0000  -3.8035   0.0000   0.0000   0.0000   0.3045
   7.500   1.1326   0.03335   0.02319  -0.0676  0.0606  1.0000  -3.9792   0.0000   0.0000   0.0000   0.3022
   7.750   1.1620   0.03623   0.02623  -0.0671  0.0559  1.0000  -4.1450   0.0000   0.0000   0.0000   0.3000
   8.000   1.1897   0.03931   0.02952  -0.0665  0.0530  1.0000  -4.2938   0.0000   0.0000   0.0000   0.2978
   8.250   1.2148   0.04298   0.03355  -0.0654  0.0525  1.0000  -4.3840   0.0000   0.0000   0.0000   0.2955
   8.500   1.2299   0.04663   0.03790  -0.0627  0.0537  1.0000  -4.3731   0.0000   0.0000   0.0000   0.2924
   8.750   1.2396   0.05058   0.04248  -0.0598  0.0547  1.0000  -4.3574   0.0000   0.0000   0.0000   0.2894
   9.000   1.2453   0.05456   0.04696  -0.0570  0.0552  1.0000  -4.3491   0.0000   0.0000   0.0000   0.2867
   9.250   1.2472   0.05867   0.05152  -0.0542  0.0559  1.0000  -4.3324   0.0000   0.0000   0.0000   0.2842
   9.500   1.2481   0.06305   0.05624  -0.0518  0.0570  1.0000  -4.3214   0.0000   0.0000   0.0000   0.2819
   9.750   1.2334   0.06746   0.06124  -0.0479  0.0610  1.0000  -4.1785   0.0000   0.0000   0.0000   0.2791
  10.000   1.2258   0.07239   0.06650  -0.0454  0.0659  1.0000  -4.0924   0.0000   0.0000   0.0000   0.2771
  10.250   1.2087   0.07732   0.07170  -0.0428  0.0702  1.0000  -3.9905   0.0000   0.0000   0.0000   0.2752
  11.000   1.1239   0.09383   0.08894  -0.0424  0.0844  1.0000  -3.5640   0.0000   0.0000   0.0000   0.2769
  11.500   0.9808   0.13804   0.13321  -0.0814  0.1778  1.0000  -2.2451   0.0000   0.0000   0.0000   0.3228
  12.000   0.9761   0.14872   0.14384  -0.0853  0.1695  1.0000  -2.1806   0.0000   0.0000   0.0000   0.3267
  12.500   0.9757   0.15845   0.15355  -0.0889  0.1582  1.0000  -2.1361   0.0000   0.0000   0.0000   0.3299


