xflr5 v6.61

 Calculated polar for: NACA4412_7_20

 1 1 Reynolds number fixed          Mach number fixed         

 xtrf =   1.000 (top)        1.000 (bottom)
 Mach =   0.200     Re =     0.050 e 6     Ncrit =   9.000

  alpha     CL        CD       CDp       Cm    Top Xtr Bot Xtr   Cpmin    Chinge    XCp    
 ------- -------- --------- --------- -------- ------- ------- -------- --------- ---------
 -20.500  -0.6785   0.25648   0.24847   0.0348  1.0000  0.0482  -1.4467   0.0000   0.0000   0.0000   0.2903
 -20.000  -0.6611   0.25065   0.24262   0.0307  1.0000  0.0507  -1.4499   0.0000   0.0000   0.0000   0.2861
 -19.500  -0.6460   0.24716   0.23917   0.0258  1.0000  0.0520  -1.5024   0.0000   0.0000   0.0000   0.2800
 -19.000  -0.6263   0.23817   0.23016   0.0232  1.0000  0.0549  -1.4435   0.0000   0.0000   0.0000   0.2774
 -18.500  -0.6100   0.23308   0.22507   0.0190  1.0000  0.0576  -1.4593   0.0000   0.0000   0.0000   0.2720
 -18.000  -0.5928   0.22635   0.21836   0.0155  1.0000  0.0592  -1.4478   0.0000   0.0000   0.0000   0.2674
 -17.500  -0.5753   0.21982   0.21183   0.0123  1.0000  0.0623  -1.4222   0.0000   0.0000   0.0000   0.2629
 -17.000  -0.5618   0.21588   0.20793   0.0079  1.0000  0.0644  -1.4552   0.0000   0.0000   0.0000   0.2560
 -16.500  -0.5423   0.20730   0.19935   0.0057  1.0000  0.0674  -1.3935   0.0000   0.0000   0.0000   0.2526
 -16.000  -0.5281   0.20226   0.19433   0.0019  1.0000  0.0706  -1.3980   0.0000   0.0000   0.0000   0.2462
 -15.500  -0.5111   0.19495   0.18705  -0.0007  1.0000  0.0732  -1.3589   0.0000   0.0000   0.0000   0.2414
 -15.000  -0.4976   0.18969   0.18181  -0.0040  1.0000  0.0775  -1.3679   0.0000   0.0000   0.0000   0.2350
 -14.500  -0.4810   0.18238   0.17453  -0.0062  1.0000  0.0814  -1.3601   0.0000   0.0000   0.0000   0.2302
 -14.000  -0.4728   0.17859   0.17080  -0.0100  1.0000  0.0853  -1.4187   0.0000   0.0000   0.0000   0.2225
 -13.500  -0.4537   0.17007   0.16229  -0.0114  1.0000  0.0905  -1.3831   0.0000   0.0000   0.0000   0.2185
 -13.000  -0.4434   0.16452   0.15682  -0.0143  1.0000  0.0939  -1.4155   0.0000   0.0000   0.0000   0.2117
 -12.500  -0.4304   0.15823   0.15054  -0.0163  1.0000  0.0998  -1.4142   0.0000   0.0000   0.0000   0.2061
 -12.000  -0.4166   0.15126   0.14363  -0.0180  1.0000  0.1044  -1.4056   0.0000   0.0000   0.0000   0.2009
 -11.500  -0.4155   0.14788   0.14035  -0.0214  1.0000  0.1089  -1.4703   0.0000   0.0000   0.0000   0.1931
 -11.000  -0.3982   0.13985   0.13235  -0.0222  1.0000  0.1163  -1.4280   0.0000   0.0000   0.0000   0.1888
 -10.500  -0.3862   0.13321   0.12577  -0.0234  1.0000  0.1237  -1.4102   0.0000   0.0000   0.0000   0.1841
 -10.000  -0.3767   0.12713   0.11978  -0.0247  1.0000  0.1319  -1.4001   0.0000   0.0000   0.0000   0.1794
  -9.750  -0.3820   0.12623   0.11896  -0.0266  1.0000  0.1348  -1.4473   0.0000   0.0000   0.0000   0.1758
  -9.500  -0.3683   0.12123   0.11397  -0.0258  1.0000  0.1403  -1.3896   0.0000   0.0000   0.0000   0.1751
  -9.250  -0.3737   0.12017   0.11302  -0.0274  1.0000  0.1439  -1.4308   0.0000   0.0000   0.0000   0.1723
  -9.000  -0.3613   0.11548   0.10835  -0.0267  1.0000  0.1488  -1.3790   0.0000   0.0000   0.0000   0.1717
  -8.750  -0.3664   0.11422   0.10718  -0.0278  1.0000  0.1531  -1.4198   0.0000   0.0000   0.0000   0.1700
  -8.500  -0.3561   0.10997   0.10297  -0.0271  1.0000  0.1579  -1.3996   0.0000   0.0000   0.0000   0.1697
  -8.250  -0.3624   0.10872   0.10183  -0.0278  1.0000  0.1627  -1.4370   0.0000   0.0000   0.0000   0.1695
  -8.000  -0.3532   0.10471   0.09785  -0.0269  1.0000  0.1679  -1.4180   0.0000   0.0000   0.0000   0.1699
  -7.750  -0.3631   0.10378   0.09706  -0.0270  1.0000  0.1727  -1.4581   0.0000   0.0000   0.0000   0.1721
  -7.500  -0.3542   0.09984   0.09316  -0.0258  1.0000  0.1786  -1.4358   0.0000   0.0000   0.0000   0.1736
  -7.250  -0.3693   0.09934   0.09284  -0.0251  1.0000  0.1829  -1.4811   0.0000   0.0000   0.0000   0.1789
  -7.000  -0.3614   0.09558   0.08913  -0.0235  1.0000  0.1903  -1.4562   0.0000   0.0000   0.0000   0.1818
  -6.750  -0.3790   0.09538   0.08911  -0.0247  1.0000  0.1939  -1.5198   0.0000   0.0000   0.0000   0.1822
  -6.500  -0.3733   0.09189   0.08568  -0.0226  1.0000  0.2036  -1.4934   0.0000   0.0000   0.0000   0.1869
  -6.250  -0.3704   0.08883   0.08269  -0.0208  1.0000  0.2126  -1.4775   0.0000   0.0000   0.0000   0.1913
  -6.000  -0.3709   0.08622   0.08017  -0.0196  1.0000  0.2211  -1.4744   0.0000   0.0000   0.0000   0.1948
  -5.750  -0.3734   0.08388   0.07792  -0.0190  1.0000  0.2301  -1.4805   0.0000   0.0000   0.0000   0.1969
  -5.500  -0.3754   0.08157   0.07569  -0.0187  1.0000  0.2402  -1.4862   0.0000   0.0000   0.0000   0.1982
  -5.250  -0.3754   0.07907   0.07326  -0.0181  1.0000  0.2515  -1.4835   0.0000   0.0000   0.0000   0.1999
  -5.000  -0.3736   0.07640   0.07066  -0.0171  1.0000  0.2637  -1.4731   0.0000   0.0000   0.0000   0.2024
  -4.750  -0.3708   0.07367   0.06798  -0.0157  1.0000  0.2775  -1.4557   0.0000   0.0000   0.0000   0.2059
  -4.250  -0.3643   0.06837   0.06276  -0.0142  1.0000  0.3129  -1.4237   0.0000   0.0000   0.0000   0.2094
  -4.000  -0.3603   0.06577   0.06020  -0.0129  1.0000  0.3375  -1.3985   0.0000   0.0000   0.0000   0.2126
  -3.750  -0.3573   0.06310   0.05760  -0.0094  1.0000  0.3662  -1.3595   0.0000   0.0000   0.0000   0.2223
  -3.500  -0.3560   0.06065   0.05523  -0.0056  1.0000  0.4049  -1.3218   0.0000   0.0000   0.0000   0.2327
  -3.250  -0.3568   0.05824   0.05291   0.0002  1.0000  0.4479  -1.2845   0.0000   0.0000   0.0000   0.2492
  -2.750  -0.1729   0.04246   0.03510  -0.0547  1.0000  0.1847  -1.5987   0.0000   0.0000   0.0000  -0.0692
  -2.500  -0.1309   0.03806   0.03003  -0.0592  1.0000  0.1610  -1.6451   0.0000   0.0000   0.0000  -0.2059
  -2.250  -0.0926   0.03460   0.02584  -0.0622  1.0000  0.1514  -1.6536   0.0000   0.0000   0.0000  -0.4256
  -2.000  -0.0600   0.03222   0.02290  -0.0637  1.0000  0.1550  -1.6102   0.0000   0.0000   0.0000  -0.8187
  -1.750  -0.0303   0.03035   0.02063  -0.0644  1.0000  0.1603  -1.5525   0.0000   0.0000   0.0000  -1.8870
  -1.500  -0.0018   0.02891   0.01877  -0.0649  1.0000  0.1720  -1.5013   0.0000   0.0000   0.0000  -35.5439
  -1.250   0.0242   0.02778   0.01744  -0.0649  1.0000  0.1876  -1.4273   0.0000   0.0000   0.0000   2.9509
  -1.000   0.0494   0.02690   0.01636  -0.0648  1.0000  0.2099  -1.3449   0.0000   0.0000   0.0000   1.5672
  -0.750   0.0755   0.02619   0.01553  -0.0648  1.0000  0.2434  -1.2496   0.0000   0.0000   0.0000   1.1103
  -0.500   0.1030   0.02552   0.01486  -0.0650  1.0000  0.2990  -1.1651   0.0000   0.0000   0.0000   0.8827
  -0.250   0.1357   0.02409   0.01416  -0.0661  1.0000  0.4357  -1.0645   0.0000   0.0000   0.0000   0.7378
   0.000   0.1503   0.02250   0.01362  -0.0635  1.0000  1.0000  -1.0066   0.0000   0.0000   0.0000   0.6728
   0.250   0.1704   0.02326   0.01388  -0.0633  1.0000  1.0000  -0.8947   0.0000   0.0000   0.0000   0.6216
   0.500   0.1895   0.02408   0.01438  -0.0632  1.0000  1.0000  -0.7952   0.0000   0.0000   0.0000   0.5833
   0.750   0.2362   0.02533   0.01525  -0.0683  0.9879  1.0000  -0.6304   0.0000   0.0000   0.0000   0.5383
   1.000   0.2848   0.02652   0.01614  -0.0735  0.9732  1.0000  -0.4805   0.0000   0.0000   0.0000   0.5070
   1.250   0.3279   0.02757   0.01699  -0.0777  0.9579  1.0000  -0.5051   0.0000   0.0000   0.0000   0.4855
   1.500   0.3706   0.02860   0.01785  -0.0816  0.9433  1.0000  -0.5305   0.0000   0.0000   0.0000   0.4685
   1.750   0.4091   0.02954   0.01870  -0.0846  0.9284  1.0000  -0.5542   0.0000   0.0000   0.0000   0.4550
   2.000   0.4505   0.03048   0.01955  -0.0880  0.9145  1.0000  -0.5809   0.0000   0.0000   0.0000   0.4433
   2.250   0.4849   0.03137   0.02040  -0.0901  0.9002  1.0000  -0.6042   0.0000   0.0000   0.0000   0.4336
   2.500   0.5166   0.03226   0.02128  -0.0917  0.8858  1.0000  -0.6267   0.0000   0.0000   0.0000   0.4251
   2.750   0.5492   0.03315   0.02219  -0.0933  0.8720  1.0000  -0.6512   0.0000   0.0000   0.0000   0.4173
   3.000   0.5812   0.03404   0.02312  -0.0948  0.8585  1.0000  -0.6766   0.0000   0.0000   0.0000   0.4103
   3.250   0.6123   0.03494   0.02407  -0.0961  0.8452  1.0000  -0.7030   0.0000   0.0000   0.0000   0.4039
   3.500   0.6422   0.03586   0.02509  -0.0971  0.8320  1.0000  -0.7308   0.0000   0.0000   0.0000   0.3979
   3.750   0.6711   0.03681   0.02613  -0.0979  0.8189  1.0000  -0.7607   0.0000   0.0000   0.0000   0.3924
   4.000   0.6992   0.03777   0.02720  -0.0985  0.8057  1.0000  -0.8452   0.0000   0.0000   0.0000   0.3872
   4.250   0.7266   0.03876   0.02832  -0.0990  0.7925  1.0000  -0.9512   0.0000   0.0000   0.0000   0.3823
   4.500   0.7535   0.03977   0.02951  -0.0993  0.7791  1.0000  -1.0720   0.0000   0.0000   0.0000   0.3777
   4.750   0.7801   0.04079   0.03070  -0.0995  0.7655  1.0000  -1.2033   0.0000   0.0000   0.0000   0.3732
   5.000   0.8065   0.04180   0.03190  -0.0996  0.7516  1.0000  -1.3454   0.0000   0.0000   0.0000   0.3689
   5.250   0.8331   0.04279   0.03315  -0.0995  0.7371  1.0000  -1.4974   0.0000   0.0000   0.0000   0.3647
   5.500   0.8607   0.04369   0.03429  -0.0994  0.7221  1.0000  -1.6719   0.0000   0.0000   0.0000   0.3605
   5.750   0.8921   0.04432   0.03522  -0.0993  0.7062  1.0000  -1.8844   0.0000   0.0000   0.0000   0.3560
   6.000   0.9372   0.04394   0.03530  -0.0996  0.6893  1.0000  -2.1768   0.0000   0.0000   0.0000   0.3508
   6.250   1.0720   0.03012   0.02235  -0.0930  0.6151  1.0000  -3.0672   0.0000   0.0000   0.0000   0.3308
   6.750   1.0897   0.02587   0.01788  -0.0750  0.4080  1.0000  -3.4201   0.0000   0.0000   0.0000   0.3121
   7.000   1.0701   0.02878   0.01900  -0.0671  0.2277  1.0000  -3.3857   0.0000   0.0000   0.0000   0.3056
   7.250   1.0681   0.03211   0.02153  -0.0631  0.1736  1.0000  -3.4062   0.0000   0.0000   0.0000   0.3017
   7.500   1.0819   0.03491   0.02396  -0.0606  0.1441  1.0000  -3.4849   0.0000   0.0000   0.0000   0.2984
   7.750   1.1159   0.03772   0.02672  -0.0600  0.1220  1.0000  -3.6134   0.0000   0.0000   0.0000   0.2958
   8.000   1.1584   0.04108   0.03002  -0.0606  0.1071  1.0000  -3.7903   0.0000   0.0000   0.0000   0.2941
   8.250   1.1981   0.04500   0.03409  -0.0611  0.1001  1.0000  -3.9591   0.0000   0.0000   0.0000   0.2924
   8.500   1.2184   0.04844   0.03808  -0.0594  0.0956  1.0000  -4.0440   0.0000   0.0000   0.0000   0.2899
   8.750   1.2384   0.05243   0.04240  -0.0581  0.0921  1.0000  -4.1410   0.0000   0.0000   0.0000   0.2879
   9.000   1.2500   0.05655   0.04708  -0.0558  0.0919  1.0000  -4.1673   0.0000   0.0000   0.0000   0.2854
   9.250   1.2582   0.06093   0.05193  -0.0536  0.0923  1.0000  -4.1840   0.0000   0.0000   0.0000   0.2831
   9.500   1.2622   0.06541   0.05683  -0.0514  0.0928  1.0000  -4.1911   0.0000   0.0000   0.0000   0.2809
   9.750   1.2502   0.06936   0.06138  -0.0480  0.0941  1.0000  -4.1278   0.0000   0.0000   0.0000   0.2785
  10.000   1.2302   0.07358   0.06609  -0.0449  0.0959  1.0000  -4.0380   0.0000   0.0000   0.0000   0.2763
  10.250   1.2103   0.07780   0.07062  -0.0423  0.0973  1.0000  -3.9684   0.0000   0.0000   0.0000   0.2746
  10.500   1.1904   0.08213   0.07516  -0.0404  0.0986  1.0000  -3.9064   0.0000   0.0000   0.0000   0.2733
  10.750   1.1733   0.08690   0.08009  -0.0396  0.0998  1.0000  -3.8530   0.0000   0.0000   0.0000   0.2729
  11.000   1.1574   0.09208   0.08543  -0.0396  0.1011  1.0000  -3.7956   0.0000   0.0000   0.0000   0.2731
  11.250   0.9795   0.09217   0.08601  -0.0327  0.1029  1.0000  -3.2949   0.0000   0.0000   0.0000   0.2724
  11.500   0.9350   0.10106   0.09499  -0.0375  0.1070  1.0000  -3.0690   0.0000   0.0000   0.0000   0.2792
  11.750   0.9200   0.10762   0.10158  -0.0398  0.1088  1.0000  -2.9813   0.0000   0.0000   0.0000   0.2822
  12.000   1.0261   0.12822   0.12179  -0.0629  0.1167  1.0000  -2.9782   0.0000   0.0000   0.0000   0.2996
  12.250   0.8264   0.13135   0.12521  -0.0567  0.1331  1.0000  -2.2353   0.0000   0.0000   0.0000   0.3080
  12.500   0.8148   0.13807   0.13192  -0.0598  0.1435  1.0000  -2.1027   0.0000   0.0000   0.0000   0.3128
  12.750   0.7519   0.15528   0.14908  -0.0760  0.2741  1.0000  -1.5236   0.0000   0.0000   0.0000   0.3413
  13.000   0.9479   0.17551   0.16874  -0.1008  0.2702  1.0000  -1.8959   0.0000   0.0000   0.0000   0.3447
  13.250   0.7399   0.16083   0.15463  -0.0783  0.2679  1.0000  -1.4391   0.0000   0.0000   0.0000   0.3456
  13.500   0.9545   0.18354   0.17675  -0.1034  0.2562  1.0000  -1.8822   0.0000   0.0000   0.0000   0.3462
  13.750   0.7422   0.16724   0.16108  -0.0799  0.2558  1.0000  -1.4080   0.0000   0.0000   0.0000   0.3470
  14.000   0.9686   0.19193   0.18516  -0.1055  0.2404  1.0000  -1.8936   0.0000   0.0000   0.0000   0.3461
  14.250   0.7461   0.17387   0.16775  -0.0817  0.2457  1.0000  -1.3922   0.0000   0.0000   0.0000   0.3484
  14.500   0.9844   0.20083   0.19409  -0.1078  0.2277  1.0000  -1.9032   0.0000   0.0000   0.0000   0.3460
  14.750   0.7505   0.18004   0.17395  -0.0834  0.2312  1.0000  -1.3791   0.0000   0.0000   0.0000   0.3495
  15.000   0.9971   0.20918   0.20243  -0.1106  0.2147  1.0000  -1.8978   0.0000   0.0000   0.0000   0.3468
  15.500   1.0027   0.21516   0.20837  -0.1146  0.1989  1.0000  -1.8654   0.0000   0.0000   0.0000   0.3495
  16.000   1.0242   0.22436   0.21761  -0.1163  0.1842  1.0000  -1.8943   0.0000   0.0000   0.0000   0.3480
  16.500   1.0408   0.23316   0.22643  -0.1192  0.1731  1.0000  -1.9242   0.0000   0.0000   0.0000   0.3483
  17.000   1.0514   0.23976   0.23301  -0.1235  0.1628  1.0000  -1.9303   0.0000   0.0000   0.0000   0.3504
  17.500   1.0632   0.24637   0.23960  -0.1278  0.1526  1.0000  -1.9361   0.0000   0.0000   0.0000   0.3524
  18.000   1.0756   0.25278   0.24600  -0.1323  0.1419  1.0000  -1.9397   0.0000   0.0000   0.0000   0.3544
  18.500   1.0899   0.25962   0.25283  -0.1365  0.1317  1.0000  -1.9505   0.0000   0.0000   0.0000   0.3558
  19.000   1.1056   0.26691   0.26015  -0.1406  0.1236  1.0000  -1.9629   0.0000   0.0000   0.0000   0.3568
  19.500   1.1229   0.27488   0.26814  -0.1442  0.1164  1.0000  -1.9846   0.0000   0.0000   0.0000   0.3573
  20.000   1.1421   0.28394   0.27722  -0.1473  0.1088  1.0000  -2.0222   0.0000   0.0000   0.0000   0.3569


