xflr5 v6.61

 Calculated polar for: NACA4412_7_70

 1 1 Reynolds number fixed          Mach number fixed         

 xtrf =   1.000 (top)        1.000 (bottom)
 Mach =   0.200     Re =     0.090 e 6     Ncrit =   9.000

  alpha     CL        CD       CDp       Cm    Top Xtr Bot Xtr   Cpmin    Chinge    XCp    
 ------- -------- --------- --------- -------- ------- ------- -------- --------- ---------
 -21.000  -0.6787   0.25912   0.25304   0.0352  1.0000  0.0272  -1.4799   0.0000   0.0000   0.0000   0.2892
 -20.500  -0.6611   0.25286   0.24677   0.0314  1.0000  0.0284  -1.4626   0.0000   0.0000   0.0000   0.2853
 -20.000  -0.6435   0.24678   0.24069   0.0273  1.0000  0.0298  -1.4712   0.0000   0.0000   0.0000   0.2808
 -19.500  -0.6264   0.24143   0.23534   0.0228  1.0000  0.0307  -1.5169   0.0000   0.0000   0.0000   0.2752
 -19.000  -0.6091   0.23464   0.22857   0.0193  1.0000  0.0313  -1.5062   0.0000   0.0000   0.0000   0.2707
 -18.500  -0.5914   0.22795   0.22187   0.0161  1.0000  0.0327  -1.4599   0.0000   0.0000   0.0000   0.2667
 -18.000  -0.5743   0.22179   0.21571   0.0124  1.0000  0.0344  -1.4490   0.0000   0.0000   0.0000   0.2615
 -17.500  -0.5590   0.21689   0.21083   0.0079  1.0000  0.0356  -1.4953   0.0000   0.0000   0.0000   0.2544
 -17.000  -0.5410   0.20915   0.20310   0.0055  1.0000  0.0371  -1.4204   0.0000   0.0000   0.0000   0.2507
 -16.500  -0.5244   0.20290   0.19686   0.0023  1.0000  0.0394  -1.3910   0.0000   0.0000   0.0000   0.2452
 -16.000  -0.5111   0.19809   0.19208  -0.0021  1.0000  0.0407  -1.4338   0.0000   0.0000   0.0000   0.2371
 -15.500  -0.4931   0.19013   0.18413  -0.0041  1.0000  0.0422  -1.3840   0.0000   0.0000   0.0000   0.2332
 -15.000  -0.4777   0.18381   0.17781  -0.0069  1.0000  0.0446  -1.3918   0.0000   0.0000   0.0000   0.2273
 -14.500  -0.4670   0.17906   0.17310  -0.0110  1.0000  0.0461  -1.4834   0.0000   0.0000   0.0000   0.2184
 -14.000  -0.4492   0.17099   0.16505  -0.0124  1.0000  0.0480  -1.4333   0.0000   0.0000   0.0000   0.2144
 -13.500  -0.4359   0.16485   0.15894  -0.0151  1.0000  0.0509  -1.4499   0.0000   0.0000   0.0000   0.2078
 -13.000  -0.4270   0.15939   0.15355  -0.0185  1.0000  0.0523  -1.5223   0.0000   0.0000   0.0000   0.1992
 -12.500  -0.4104   0.15205   0.14620  -0.0196  1.0000  0.0561  -1.4626   0.0000   0.0000   0.0000   0.1949
 -12.000  -0.4039   0.14675   0.14098  -0.0230  1.0000  0.0584  -1.5361   0.0000   0.0000   0.0000   0.1861
 -11.500  -0.3881   0.13953   0.13378  -0.0238  1.0000  0.0624  -1.4760   0.0000   0.0000   0.0000   0.1817
 -11.000  -0.3895   0.13577   0.13012  -0.0281  1.0000  0.0645  -1.6001   0.0000   0.0000   0.0000   0.1714
 -10.500  -0.3683   0.12718   0.12153  -0.0275  1.0000  0.0686  -1.4829   0.0000   0.0000   0.0000   0.1691
 -10.000  -0.3729   0.12351   0.11799  -0.0316  1.0000  0.0711  -1.6080   0.0000   0.0000   0.0000   0.1594
  -9.750  -0.3567   0.11818   0.11265  -0.0299  1.0000  0.0734  -1.4929   0.0000   0.0000   0.0000   0.1603
  -9.500  -0.3527   0.11534   0.10985  -0.0304  1.0000  0.0758  -1.4857   0.0000   0.0000   0.0000   0.1580
  -9.250  -0.3558   0.11346   0.10804  -0.0322  1.0000  0.0777  -1.5418   0.0000   0.0000   0.0000   0.1541
  -9.000  -0.3528   0.11021   0.10485  -0.0325  1.0000  0.0788  -1.5509   0.0000   0.0000   0.0000   0.1526
  -8.750  -0.3445   0.10680   0.10146  -0.0317  1.0000  0.0817  -1.5131   0.0000   0.0000   0.0000   0.1528
  -8.500  -0.3473   0.10476   0.09950  -0.0326  1.0000  0.0845  -1.5572   0.0000   0.0000   0.0000   0.1512
  -8.250  -0.3595   0.10374   0.09860  -0.0341  1.0000  0.0853  -1.6513   0.0000   0.0000   0.0000   0.1506
  -8.000  -0.3427   0.09908   0.09394  -0.0317  1.0000  0.0897  -1.5525   0.0000   0.0000   0.0000   0.1528
  -7.750  -0.3516   0.09757   0.09254  -0.0319  1.0000  0.0922  -1.6076   0.0000   0.0000   0.0000   0.1549
  -7.500  -0.3696   0.09687   0.09199  -0.0314  1.0000  0.0928  -1.6878   0.0000   0.0000   0.0000   0.1612
  -7.250  -0.3543   0.09250   0.08762  -0.0291  1.0000  0.0965  -1.6012   0.0000   0.0000   0.0000   0.1640
  -7.000  -0.3650   0.09100   0.08621  -0.0275  1.0000  0.0989  -1.6300   0.0000   0.0000   0.0000   0.1713
  -6.750  -0.3798   0.08975   0.08510  -0.0291  1.0000  0.1005  -1.7177   0.0000   0.0000   0.0000   0.1704
  -6.500  -0.3779   0.08655   0.08195  -0.0267  1.0000  0.1023  -1.6867   0.0000   0.0000   0.0000   0.1766
  -6.250  -0.3785   0.08416   0.07961  -0.0252  1.0000  0.1054  -1.6708   0.0000   0.0000   0.0000   0.1808
  -6.000  -0.3860   0.08219   0.07769  -0.0300  1.0000  0.1087  -1.7722   0.0000   0.0000   0.0000   0.1699
  -5.750  -0.3837   0.07906   0.07463  -0.0265  1.0000  0.1108  -1.7203   0.0000   0.0000   0.0000   0.1785
  -5.500  -0.3818   0.07653   0.07212  -0.0266  1.0000  0.1152  -1.7136   0.0000   0.0000   0.0000   0.1783
  -5.250  -0.3784   0.07337   0.06898  -0.0292  1.0000  0.1187  -1.7449   0.0000   0.0000   0.0000   0.1709
  -5.000  -0.3728   0.07071   0.06632  -0.0289  1.0000  0.1239  -1.7180   0.0000   0.0000   0.0000   0.1705
  -4.750  -0.3651   0.06747   0.06308  -0.0305  1.0000  0.1285  -1.7145   0.0000   0.0000   0.0000   0.1646
  -4.500  -0.3531   0.06426   0.05981  -0.0333  1.0000  0.1365  -1.7103   0.0000   0.0000   0.0000   0.1538
  -4.250  -0.3407   0.06127   0.05678  -0.0348  1.0000  0.1458  -1.6786   0.0000   0.0000   0.0000   0.1462
  -4.000  -0.3269   0.05833   0.05379  -0.0360  1.0000  0.1557  -1.6360   0.0000   0.0000   0.0000   0.1383
  -3.750  -0.3106   0.05534   0.05073  -0.0375  1.0000  0.1658  -1.5902   0.0000   0.0000   0.0000   0.1275
  -2.750  -0.1380   0.03239   0.02531  -0.0626  0.9959  0.0938  -1.9463   0.0000   0.0000   0.0000  -0.2083
  -2.500  -0.0881   0.02883   0.02103  -0.0670  0.9908  0.0907  -1.9042   0.0000   0.0000   0.0000  -0.5176
  -2.250  -0.0406   0.02659   0.01819  -0.0708  0.9845  0.0965  -1.8161   0.0000   0.0000   0.0000  -1.5078
  -2.000   0.0056   0.02493   0.01608  -0.0741  0.9776  0.1053  -1.7136   0.0000   0.0000   0.0000  13.5492
  -1.750   0.0509   0.02366   0.01450  -0.0773  0.9701  0.1189  -1.5828   0.0000   0.0000   0.0000   1.7778
  -1.500   0.0948   0.02276   0.01356  -0.0803  0.9621  0.1405  -1.4306   0.0000   0.0000   0.0000   1.1020
  -1.250   0.1385   0.02197   0.01279  -0.0833  0.9537  0.1747  -1.2888   0.0000   0.0000   0.0000   0.8543
  -1.000   0.1822   0.02120   0.01229  -0.0863  0.9455  0.2330  -1.1286   0.0000   0.0000   0.0000   0.7256
  -0.750   0.2226   0.02028   0.01185  -0.0888  0.9362  0.3458  -0.9732   0.0000   0.0000   0.0000   0.6498
  -0.500   0.2635   0.01826   0.01143  -0.0904  0.9278  1.0000  -0.8286   0.0000   0.0000   0.0000   0.5937
  -0.250   0.3056   0.01844   0.01124  -0.0930  0.9168  1.0000  -0.6716   0.0000   0.0000   0.0000   0.5545
   0.000   0.3466   0.01856   0.01112  -0.0954  0.9056  1.0000  -0.5395   0.0000   0.0000   0.0000   0.5250
   0.250   0.3872   0.01864   0.01100  -0.0977  0.8944  1.0000  -0.5650   0.0000   0.0000   0.0000   0.5017
   0.500   0.4274   0.01868   0.01090  -0.0998  0.8833  1.0000  -0.5909   0.0000   0.0000   0.0000   0.4826
   0.750   0.4683   0.01867   0.01077  -0.1019  0.8726  1.0000  -0.6180   0.0000   0.0000   0.0000   0.4666
   1.000   0.5083   0.01860   0.01061  -0.1037  0.8624  1.0000  -0.6458   0.0000   0.0000   0.0000   0.4528
   1.250   0.5513   0.01839   0.01034  -0.1059  0.8536  1.0000  -0.6766   0.0000   0.0000   0.0000   0.4405
   1.500   0.5851   0.01836   0.01027  -0.1064  0.8415  1.0000  -0.7022   0.0000   0.0000   0.0000   0.4302
   1.750   0.6179   0.01834   0.01023  -0.1068  0.8293  1.0000  -0.7283   0.0000   0.0000   0.0000   0.4209
   2.000   0.6499   0.01834   0.01021  -0.1070  0.8170  1.0000  -0.7547   0.0000   0.0000   0.0000   0.4125
   2.250   0.6812   0.01835   0.01022  -0.1070  0.8047  1.0000  -0.7819   0.0000   0.0000   0.0000   0.4048
   2.500   0.7119   0.01839   0.01028  -0.1069  0.7924  1.0000  -0.8100   0.0000   0.0000   0.0000   0.3977
   2.750   0.7423   0.01844   0.01035  -0.1068  0.7803  1.0000  -0.8394   0.0000   0.0000   0.0000   0.3911
   3.000   0.7728   0.01850   0.01043  -0.1066  0.7684  1.0000  -0.8711   0.0000   0.0000   0.0000   0.3850
   3.250   0.8040   0.01853   0.01051  -0.1064  0.7571  1.0000  -0.9560   0.0000   0.0000   0.0000   0.3792
   3.500   0.8345   0.01860   0.01062  -0.1062  0.7454  1.0000  -1.0775   0.0000   0.0000   0.0000   0.3739
   3.750   0.8611   0.01885   0.01093  -0.1055  0.7322  1.0000  -1.2054   0.0000   0.0000   0.0000   0.3689
   4.000   0.8877   0.01912   0.01128  -0.1048  0.7191  1.0000  -1.3418   0.0000   0.0000   0.0000   0.3642
   4.250   0.9142   0.01941   0.01169  -0.1040  0.7060  1.0000  -1.4918   0.0000   0.0000   0.0000   0.3597
   4.500   0.9408   0.01970   0.01208  -0.1032  0.6928  1.0000  -1.6466   0.0000   0.0000   0.0000   0.3554
   4.750   0.9674   0.01999   0.01247  -0.1024  0.6794  1.0000  -1.8136   0.0000   0.0000   0.0000   0.3513
   5.000   0.9941   0.02024   0.01288  -0.1015  0.6653  1.0000  -2.0042   0.0000   0.0000   0.0000   0.3473
   5.250   1.0218   0.02023   0.01297  -0.1002  0.6479  1.0000  -2.2256   0.0000   0.0000   0.0000   0.3430
   5.500   1.0481   0.01961   0.01231  -0.0977  0.6177  1.0000  -2.4587   0.0000   0.0000   0.0000   0.3378
   5.750   1.0703   0.01916   0.01182  -0.0947  0.5823  1.0000  -2.6840   0.0000   0.0000   0.0000   0.3328
   6.000   1.0908   0.01906   0.01180  -0.0920  0.5492  1.0000  -2.9212   0.0000   0.0000   0.0000   0.3283
   6.250   1.1091   0.01901   0.01178  -0.0890  0.5098  1.0000  -3.1490   0.0000   0.0000   0.0000   0.3239
   6.500   1.1215   0.01910   0.01185  -0.0850  0.4503  1.0000  -3.3408   0.0000   0.0000   0.0000   0.3191
   6.750   1.1153   0.02037   0.01223  -0.0784  0.2714  1.0000  -3.4170   0.0000   0.0000   0.0000   0.3132
   7.000   1.1028   0.02393   0.01445  -0.0727  0.1369  1.0000  -3.4284   0.0000   0.0000   0.0000   0.3086
   7.250   1.1050   0.02621   0.01643  -0.0689  0.1091  1.0000  -3.5077   0.0000   0.0000   0.0000   0.3047
   7.500   1.1124   0.02811   0.01827  -0.0656  0.0944  1.0000  -3.6097   0.0000   0.0000   0.0000   0.3011
   7.750   1.1246   0.03004   0.02009  -0.0630  0.0837  1.0000  -3.7318   0.0000   0.0000   0.0000   0.2978
   8.000   1.1463   0.03213   0.02212  -0.0616  0.0749  1.0000  -3.8769   0.0000   0.0000   0.0000   0.2952
   8.250   1.1771   0.03464   0.02461  -0.0614  0.0680  1.0000  -4.0486   0.0000   0.0000   0.0000   0.2933
   8.500   1.2073   0.03737   0.02746  -0.0612  0.0622  1.0000  -4.2497   0.0000   0.0000   0.0000   0.2916
   8.750   1.2395   0.04057   0.03080  -0.0613  0.0590  1.0000  -4.4340   0.0000   0.0000   0.0000   0.2900
   9.000   1.2589   0.04373   0.03439  -0.0597  0.0562  1.0000  -4.5441   0.0000   0.0000   0.0000   0.2877
   9.250   1.2737   0.04683   0.03791  -0.0577  0.0540  1.0000  -4.6397   0.0000   0.0000   0.0000   0.2853
   9.500   1.2857   0.05053   0.04207  -0.0554  0.0538  1.0000  -4.6880   0.0000   0.0000   0.0000   0.2828
   9.750   1.2895   0.05443   0.04651  -0.0524  0.0544  1.0000  -4.6841   0.0000   0.0000   0.0000   0.2801
  10.000   1.2879   0.05847   0.05106  -0.0492  0.0553  1.0000  -4.6592   0.0000   0.0000   0.0000   0.2774
  10.250   1.2842   0.06260   0.05557  -0.0463  0.0564  1.0000  -4.6393   0.0000   0.0000   0.0000   0.2749
  10.500   1.2815   0.06691   0.06015  -0.0438  0.0574  1.0000  -4.6376   0.0000   0.0000   0.0000   0.2729
  10.750   1.2834   0.07167   0.06508  -0.0422  0.0580  1.0000  -4.6618   0.0000   0.0000   0.0000   0.2713
  11.000   1.2331   0.07410   0.06809  -0.0364  0.0602  1.0000  -4.4372   0.0000   0.0000   0.0000   0.2676
  11.250   1.1211   0.07035   0.06469  -0.0257  0.0591  1.0000  -4.2159   0.0000   0.0000   0.0000   0.2611
  11.500   1.1856   0.08351   0.07798  -0.0346  0.0625  1.0000  -4.2623   0.0000   0.0000   0.0000   0.2667
  11.750   1.0486   0.08144   0.07628  -0.0256  0.0605  1.0000  -3.9572   0.0000   0.0000   0.0000   0.2621
  12.000   1.1446   0.09492   0.08973  -0.0373  0.0653  1.0000  -4.0887   0.0000   0.0000   0.0000   0.2695
  12.250   0.9799   0.09465   0.08984  -0.0304  0.0619  1.0000  -3.6765   0.0000   0.0000   0.0000   0.2682
  12.500   1.0649   0.11425   0.10937  -0.0512  0.0677  1.0000  -3.6120   0.0000   0.0000   0.0000   0.2846
  12.750   0.9219   0.10749   0.10289  -0.0367  0.0638  1.0000  -3.3970   0.0000   0.0000   0.0000   0.2767
  13.000   0.8416   0.12666   0.12214  -0.0512  0.0765  1.0000  -2.6331   0.0000   0.0000   0.0000   0.2985
  13.250   0.8405   0.13104   0.12655  -0.0521  0.0783  1.0000  -2.6062   0.0000   0.0000   0.0000   0.2995


