xflr5 v6.61

 Calculated polar for: NACA4412_6_80

 1 1 Reynolds number fixed          Mach number fixed         

 xtrf =   1.000 (top)        1.000 (bottom)
 Mach =   0.200     Re =     0.050 e 6     Ncrit =   9.000

  alpha     CL        CD       CDp       Cm    Top Xtr Bot Xtr   Cpmin    Chinge    XCp    
 ------- -------- --------- --------- -------- ------- ------- -------- --------- ---------
 -26.000  -0.8750   0.32246   0.31466   0.0857  1.0000  0.0313  -1.6156   0.0000   0.0000   0.0000   0.3313
 -25.500  -0.8589   0.31612   0.30828   0.0813  1.0000  0.0325  -1.5904   0.0000   0.0000   0.0000   0.3287
 -25.000  -0.8424   0.31045   0.30258   0.0767  1.0000  0.0338  -1.5836   0.0000   0.0000   0.0000   0.3257
 -24.500  -0.8257   0.30529   0.29739   0.0718  1.0000  0.0351  -1.5927   0.0000   0.0000   0.0000   0.3224
 -24.000  -0.8093   0.30133   0.29344   0.0665  1.0000  0.0357  -1.6237   0.0000   0.0000   0.0000   0.3183
 -23.500  -0.7921   0.29324   0.28532   0.0629  1.0000  0.0373  -1.5659   0.0000   0.0000   0.0000   0.3161
 -23.000  -0.7749   0.28741   0.27947   0.0584  1.0000  0.0391  -1.5487   0.0000   0.0000   0.0000   0.3127
 -22.500  -0.7579   0.28235   0.27439   0.0537  1.0000  0.0404  -1.5520   0.0000   0.0000   0.0000   0.3088
 -22.000  -0.7410   0.27697   0.26903   0.0491  1.0000  0.0411  -1.5513   0.0000   0.0000   0.0000   0.3047
 -21.500  -0.7231   0.26958   0.26161   0.0455  1.0000  0.0429  -1.4954   0.0000   0.0000   0.0000   0.3019
 -21.000  -0.7056   0.26376   0.25578   0.0413  1.0000  0.0449  -1.4722   0.0000   0.0000   0.0000   0.2980
 -20.500  -0.6891   0.25942   0.25145   0.0365  1.0000  0.0461  -1.4795   0.0000   0.0000   0.0000   0.2929
 -20.000  -0.6708   0.25157   0.24359   0.0331  1.0000  0.0477  -1.4354   0.0000   0.0000   0.0000   0.2898
 -19.500  -0.6532   0.24537   0.23738   0.0293  1.0000  0.0501  -1.4317   0.0000   0.0000   0.0000   0.2857
 -19.000  -0.6373   0.24107   0.23311   0.0247  1.0000  0.0519  -1.4731   0.0000   0.0000   0.0000   0.2800
 -18.500  -0.6187   0.23301   0.22504   0.0218  1.0000  0.0542  -1.4358   0.0000   0.0000   0.0000   0.2767
 -18.000  -0.6021   0.22748   0.21952   0.0179  1.0000  0.0573  -1.4428   0.0000   0.0000   0.0000   0.2716
 -17.500  -0.5856   0.22131   0.21338   0.0142  1.0000  0.0589  -1.4456   0.0000   0.0000   0.0000   0.2666
 -17.000  -0.5680   0.21449   0.20656   0.0112  1.0000  0.0621  -1.4154   0.0000   0.0000   0.0000   0.2623
 -16.500  -0.5544   0.21031   0.20240   0.0069  1.0000  0.0643  -1.4462   0.0000   0.0000   0.0000   0.2555
 -16.000  -0.5354   0.20193   0.19403   0.0046  1.0000  0.0673  -1.3896   0.0000   0.0000   0.0000   0.2518
 -15.500  -0.5216   0.19683   0.18896   0.0010  1.0000  0.0706  -1.3943   0.0000   0.0000   0.0000   0.2455
 -15.000  -0.5049   0.18952   0.18166  -0.0015  1.0000  0.0733  -1.3562   0.0000   0.0000   0.0000   0.2407
 -14.500  -0.4914   0.18404   0.17622  -0.0046  1.0000  0.0774  -1.3459   0.0000   0.0000   0.0000   0.2345
 -14.000  -0.4756   0.17690   0.16912  -0.0069  1.0000  0.0810  -1.3426   0.0000   0.0000   0.0000   0.2295
 -13.500  -0.4672   0.17283   0.16510  -0.0105  1.0000  0.0852  -1.3989   0.0000   0.0000   0.0000   0.2220
 -13.000  -0.4493   0.16462   0.15690  -0.0119  1.0000  0.0909  -1.3730   0.0000   0.0000   0.0000   0.2179
 -12.500  -0.4376   0.15844   0.15078  -0.0144  1.0000  0.0948  -1.3947   0.0000   0.0000   0.0000   0.2119
 -12.000  -0.4287   0.15330   0.14570  -0.0170  1.0000  0.1003  -1.4250   0.0000   0.0000   0.0000   0.2053
 -11.500  -0.4132   0.14579   0.13823  -0.0183  1.0000  0.1057  -1.4078   0.0000   0.0000   0.0000   0.2007
 -11.000  -0.4047   0.14005   0.13258  -0.0205  1.0000  0.1105  -1.4330   0.0000   0.0000   0.0000   0.1945
 -10.500  -0.3994   0.13532   0.12792  -0.0229  1.0000  0.1170  -1.4646   0.0000   0.0000   0.0000   0.1882
 -10.000  -0.3856   0.12817   0.12083  -0.0238  1.0000  0.1247  -1.4418   0.0000   0.0000   0.0000   0.1840
  -9.500  -0.3761   0.12203   0.11479  -0.0249  1.0000  0.1330  -1.4357   0.0000   0.0000   0.0000   0.1797
  -9.000  -0.3693   0.11640   0.10927  -0.0259  1.0000  0.1424  -1.4352   0.0000   0.0000   0.0000   0.1760
  -8.750  -0.3672   0.11360   0.10655  -0.0264  1.0000  0.1460  -1.4406   0.0000   0.0000   0.0000   0.1743
  -8.500  -0.3646   0.11105   0.10407  -0.0265  1.0000  0.1522  -1.4357   0.0000   0.0000   0.0000   0.1735
  -8.250  -0.3609   0.10789   0.10099  -0.0265  1.0000  0.1562  -1.4276   0.0000   0.0000   0.0000   0.1730
  -8.000  -0.3622   0.10590   0.09906  -0.0266  1.0000  0.1620  -1.4353   0.0000   0.0000   0.0000   0.1733
  -7.750  -0.3586   0.10268   0.09591  -0.0260  1.0000  0.1663  -1.4210   0.0000   0.0000   0.0000   0.1741
  -7.500  -0.3640   0.10111   0.09446  -0.0256  1.0000  0.1721  -1.4353   0.0000   0.0000   0.0000   0.1766
  -7.250  -0.3606   0.09789   0.09132  -0.0245  1.0000  0.1770  -1.4300   0.0000   0.0000   0.0000   0.1790
  -7.000  -0.3705   0.09675   0.09033  -0.0239  1.0000  0.1825  -1.4618   0.0000   0.0000   0.0000   0.1828
  -6.750  -0.3654   0.09331   0.08696  -0.0225  1.0000  0.1886  -1.4517   0.0000   0.0000   0.0000   0.1857
  -6.500  -0.3783   0.09277   0.08657  -0.0246  1.0000  0.1938  -1.5089   0.0000   0.0000   0.0000   0.1828
  -6.250  -0.3705   0.08892   0.08277  -0.0219  1.0000  0.2026  -1.4807   0.0000   0.0000   0.0000   0.1886
  -6.000  -0.3691   0.08606   0.07999  -0.0207  1.0000  0.2102  -1.4783   0.0000   0.0000   0.0000   0.1917
  -5.750  -0.3704   0.08364   0.07766  -0.0204  1.0000  0.2190  -1.4876   0.0000   0.0000   0.0000   0.1930
  -5.500  -0.3706   0.08117   0.07527  -0.0199  1.0000  0.2297  -1.4914   0.0000   0.0000   0.0000   0.1946
  -5.250  -0.3692   0.07854   0.07272  -0.0188  1.0000  0.2421  -1.4860   0.0000   0.0000   0.0000   0.1973
  -5.000  -0.3673   0.07596   0.07019  -0.0179  1.0000  0.2560  -1.4793   0.0000   0.0000   0.0000   0.1997
  -4.750  -0.3660   0.07401   0.06828  -0.0204  1.0000  0.2732  -1.4981   0.0000   0.0000   0.0000   0.1926
  -4.500  -0.3616   0.07066   0.06498  -0.0171  1.0000  0.2877  -1.4682   0.0000   0.0000   0.0000   0.2011
  -4.000  -0.3519   0.06512   0.05954  -0.0141  1.0000  0.3283  -1.4268   0.0000   0.0000   0.0000   0.2085
  -3.750  -0.3470   0.06243   0.05689  -0.0122  1.0000  0.3551  -1.4007   0.0000   0.0000   0.0000   0.2134
  -2.500  -0.1227   0.03819   0.03022  -0.0601  1.0000  0.1614  -1.6135   0.0000   0.0000   0.0000  -0.2433
  -2.250  -0.0840   0.03474   0.02608  -0.0632  1.0000  0.1524  -1.6290   0.0000   0.0000   0.0000  -0.5075
  -2.000  -0.0502   0.03210   0.02293  -0.0648  1.0000  0.1504  -1.5986   0.0000   0.0000   0.0000  -1.0483
  -1.750  -0.0191   0.03011   0.02047  -0.0659  1.0000  0.1567  -1.5392   0.0000   0.0000   0.0000  -3.2225
  -1.500   0.0107   0.02849   0.01841  -0.0664  1.0000  0.1657  -1.4750   0.0000   0.0000   0.0000   6.5081
  -1.250   0.0379   0.02729   0.01691  -0.0665  1.0000  0.1804  -1.4137   0.0000   0.0000   0.0000   2.0128
  -1.000   0.0638   0.02633   0.01572  -0.0664  1.0000  0.2026  -1.3381   0.0000   0.0000   0.0000   1.2944
  -0.750   0.0906   0.02557   0.01481  -0.0664  1.0000  0.2370  -1.2465   0.0000   0.0000   0.0000   0.9854
  -0.500   0.1184   0.02478   0.01409  -0.0666  1.0000  0.2946  -1.1547   0.0000   0.0000   0.0000   0.8138
  -0.250   0.1544   0.02272   0.01321  -0.0681  1.0000  0.4951  -1.0572   0.0000   0.0000   0.0000   0.6913
   0.000   0.1660   0.02177   0.01271  -0.0651  1.0000  1.0000  -1.0018   0.0000   0.0000   0.0000   0.6420
   0.250   0.1863   0.02249   0.01298  -0.0649  1.0000  1.0000  -0.8869   0.0000   0.0000   0.0000   0.5980
   0.500   0.2055   0.02327   0.01345  -0.0647  1.0000  1.0000  -0.7755   0.0000   0.0000   0.0000   0.5644
   0.750   0.2241   0.02412   0.01406  -0.0647  1.0000  1.0000  -0.6764   0.0000   0.0000   0.0000   0.5377
   1.000   0.2739   0.02541   0.01502  -0.0703  0.9862  1.0000  -0.5067   0.0000   0.0000   0.0000   0.5057
   1.250   0.3216   0.02658   0.01596  -0.0755  0.9710  1.0000  -0.4916   0.0000   0.0000   0.0000   0.4833
   1.500   0.3667   0.02766   0.01688  -0.0799  0.9560  1.0000  -0.5178   0.0000   0.0000   0.0000   0.4665
   1.750   0.4060   0.02864   0.01776  -0.0833  0.9404  1.0000  -0.5415   0.0000   0.0000   0.0000   0.4534
   2.000   0.4484   0.02962   0.01865  -0.0870  0.9260  1.0000  -0.5684   0.0000   0.0000   0.0000   0.4420
   2.250   0.4850   0.03053   0.01953  -0.0896  0.9113  1.0000  -0.5927   0.0000   0.0000   0.0000   0.4325
   2.500   0.5184   0.03143   0.02042  -0.0915  0.8964  1.0000  -0.6161   0.0000   0.0000   0.0000   0.4242
   2.750   0.5535   0.03231   0.02134  -0.0936  0.8823  1.0000  -0.6420   0.0000   0.0000   0.0000   0.4166
   3.000   0.5882   0.03318   0.02226  -0.0956  0.8686  1.0000  -0.6693   0.0000   0.0000   0.0000   0.4097
   3.250   0.6220   0.03405   0.02319  -0.0972  0.8551  1.0000  -0.6977   0.0000   0.0000   0.0000   0.4034
   3.500   0.6544   0.03492   0.02419  -0.0986  0.8418  1.0000  -0.7277   0.0000   0.0000   0.0000   0.3976
   3.750   0.6857   0.03580   0.02518  -0.0997  0.8284  1.0000  -0.7985   0.0000   0.0000   0.0000   0.3921
   4.000   0.7160   0.03669   0.02621  -0.1006  0.8150  1.0000  -0.9156   0.0000   0.0000   0.0000   0.3870
   4.250   0.7454   0.03760   0.02731  -0.1013  0.8014  1.0000  -1.0440   0.0000   0.0000   0.0000   0.3821
   4.500   0.7744   0.03851   0.02840  -0.1018  0.7877  1.0000  -1.1871   0.0000   0.0000   0.0000   0.3775
   4.750   0.8035   0.03940   0.02951  -0.1022  0.7738  1.0000  -1.3395   0.0000   0.0000   0.0000   0.3730
   5.000   0.8335   0.04023   0.03058  -0.1025  0.7596  1.0000  -1.5078   0.0000   0.0000   0.0000   0.3686
   5.250   0.8645   0.04096   0.03162  -0.1028  0.7448  1.0000  -1.7211   0.0000   0.0000   0.0000   0.3642
   5.500   0.8818   0.04224   0.03313  -0.1015  0.7280  1.0000  -1.8844   0.0000   0.0000   0.0000   0.3603
   5.750   0.9057   0.04316   0.03435  -0.1007  0.7104  1.0000  -2.0828   0.0000   0.0000   0.0000   0.3560
   6.000   0.9761   0.04035   0.03226  -0.1009  0.6865  1.0000  -2.5814   0.0000   0.0000   0.0000   0.3480
   6.250   1.0727   0.02577   0.01815  -0.0859  0.5517  1.0000  -3.3624   0.0000   0.0000   0.0000   0.3241
   6.500   1.0614   0.02517   0.01682  -0.0747  0.3642  1.0000  -3.3913   0.0000   0.0000   0.0000   0.3140
   6.750   1.0461   0.02884   0.01861  -0.0682  0.2013  1.0000  -3.3593   0.0000   0.0000   0.0000   0.3086
   7.000   1.0498   0.03195   0.02116  -0.0647  0.1579  1.0000  -3.3916   0.0000   0.0000   0.0000   0.3047
   7.250   1.0675   0.03464   0.02360  -0.0626  0.1322  1.0000  -3.4745   0.0000   0.0000   0.0000   0.3014
   7.500   1.1054   0.03758   0.02643  -0.0623  0.1133  1.0000  -3.6338   0.0000   0.0000   0.0000   0.2989
   7.750   1.1505   0.04120   0.03005  -0.0631  0.1018  1.0000  -3.8274   0.0000   0.0000   0.0000   0.2971
   8.000   1.1799   0.04472   0.03399  -0.0623  0.0957  1.0000  -3.9378   0.0000   0.0000   0.0000   0.2948
   8.250   1.2042   0.04859   0.03818  -0.0612  0.0916  1.0000  -4.0354   0.0000   0.0000   0.0000   0.2925
   8.500   1.2216   0.05265   0.04282  -0.0592  0.0913  1.0000  -4.0683   0.0000   0.0000   0.0000   0.2900
   8.750   1.2327   0.05683   0.04754  -0.0570  0.0913  1.0000  -4.0828   0.0000   0.0000   0.0000   0.2875
   9.000   1.2376   0.06104   0.05226  -0.0545  0.0913  1.0000  -4.0817   0.0000   0.0000   0.0000   0.2851
   9.250   1.2378   0.06532   0.05703  -0.0520  0.0914  1.0000  -4.0689   0.0000   0.0000   0.0000   0.2828
   9.500   1.2345   0.06973   0.06183  -0.0496  0.0919  1.0000  -4.0481   0.0000   0.0000   0.0000   0.2808
   9.750   1.2314   0.07437   0.06677  -0.0477  0.0926  1.0000  -4.0317   0.0000   0.0000   0.0000   0.2791
  10.000   1.2014   0.07827   0.07120  -0.0445  0.0953  1.0000  -3.9003   0.0000   0.0000   0.0000   0.2772
  10.250   1.1751   0.08254   0.07572  -0.0423  0.0973  1.0000  -3.8065   0.0000   0.0000   0.0000   0.2760
  10.750   1.1431   0.09264   0.08608  -0.0418  0.1004  1.0000  -3.6926   0.0000   0.0000   0.0000   0.2761
  11.000   1.0881   0.10061   0.09426  -0.0472  0.1058  1.0000  -3.4289   0.0000   0.0000   0.0000   0.2826
  11.250   1.0775   0.10736   0.10103  -0.0497  0.1084  1.0000  -3.3571   0.0000   0.0000   0.0000   0.2852
  11.500   1.0366   0.11950   0.11318  -0.0598  0.1161  1.0000  -3.0544   0.0000   0.0000   0.0000   0.2967
  11.750   1.0178   0.13056   0.12419  -0.0673  0.1251  1.0000  -2.8320   0.0000   0.0000   0.0000   0.3052
  12.000   0.9935   0.14235   0.13586  -0.0765  0.1407  1.0000  -2.5519   0.0000   0.0000   0.0000   0.3161
  12.500   0.9493   0.16868   0.16201  -0.1003  0.2758  1.0000  -1.9353   0.0000   0.0000   0.0000   0.3448
  13.000   0.9622   0.17793   0.17127  -0.1021  0.2624  1.0000  -1.9338   0.0000   0.0000   0.0000   0.3448
  13.500   0.9747   0.18709   0.18044  -0.1043  0.2500  1.0000  -1.9265   0.0000   0.0000   0.0000   0.3451
  14.000   0.9822   0.19521   0.18852  -0.1072  0.2371  1.0000  -1.9023   0.0000   0.0000   0.0000   0.3466
  14.500   0.9858   0.20151   0.19481  -0.1108  0.2202  1.0000  -1.8656   0.0000   0.0000   0.0000   0.3492
  15.000   1.0077   0.21118   0.20450  -0.1122  0.2041  1.0000  -1.8900   0.0000   0.0000   0.0000   0.3475
  15.500   1.0127   0.21725   0.21053  -0.1165  0.1911  1.0000  -1.8449   0.0000   0.0000   0.0000   0.3505
  16.000   1.0253   0.22458   0.21786  -0.1201  0.1782  1.0000  -1.8683   0.0000   0.0000   0.0000   0.3518
  16.500   1.0407   0.23234   0.22561  -0.1233  0.1662  1.0000  -1.9028   0.0000   0.0000   0.0000   0.3525
  17.000   1.0647   0.24295   0.23628  -0.1247  0.1536  1.0000  -1.9878   0.0000   0.0000   0.0000   0.3505
  17.500   1.0735   0.24852   0.24182  -0.1298  0.1435  1.0000  -1.9710   0.0000   0.0000   0.0000   0.3534
  18.000   1.0866   0.25529   0.24857  -0.1341  0.1339  1.0000  -1.9728   0.0000   0.0000   0.0000   0.3552
  18.500   1.1029   0.26308   0.25638  -0.1379  0.1254  1.0000  -1.9906   0.0000   0.0000   0.0000   0.3559
  19.000   1.1206   0.27147   0.26480  -0.1413  0.1172  1.0000  -2.0156   0.0000   0.0000   0.0000   0.3562
  19.500   1.1331   0.27698   0.27031  -0.1465  0.1098  1.0000  -1.9940   0.0000   0.0000   0.0000   0.3585
  20.000   1.1458   0.28280   0.27611  -0.1521  0.1036  1.0000  -1.9603   0.0000   0.0000   0.0000   0.3609


