xflr5 v6.61

 Calculated polar for: NACA4412_7_00

 1 1 Reynolds number fixed          Mach number fixed         

 xtrf =   1.000 (top)        1.000 (bottom)
 Mach =   0.200     Re =     0.100 e 6     Ncrit =   7.000

  alpha     CL        CD       CDp       Cm    Top Xtr Bot Xtr   Cpmin    Chinge    XCp    
 ------- -------- --------- --------- -------- ------- ------- -------- --------- ---------
 -18.500  -0.6085   0.22934   0.22360   0.0204  1.0000  0.0230  -1.5000   0.0000   0.0000   0.0000   0.2744
 -18.000  -0.5912   0.22296   0.21722   0.0169  1.0000  0.0241  -1.4811   0.0000   0.0000   0.0000   0.2699
 -17.500  -0.5741   0.21667   0.21093   0.0133  1.0000  0.0253  -1.4853   0.0000   0.0000   0.0000   0.2648
 -17.000  -0.5576   0.21079   0.20507   0.0093  1.0000  0.0262  -1.5250   0.0000   0.0000   0.0000   0.2586
 -16.500  -0.5415   0.20434   0.19864   0.0058  1.0000  0.0266  -1.5357   0.0000   0.0000   0.0000   0.2529
 -16.000  -0.5245   0.19735   0.19165   0.0032  1.0000  0.0280  -1.4645   0.0000   0.0000   0.0000   0.2487
 -15.500  -0.5086   0.19108   0.18539   0.0000  1.0000  0.0300  -1.4527   0.0000   0.0000   0.0000   0.2428
 -15.000  -0.4965   0.18626   0.18061  -0.0044  1.0000  0.0309  -1.5338   0.0000   0.0000   0.0000   0.2341
 -14.500  -0.4784   0.17806   0.17242  -0.0058  1.0000  0.0324  -1.4139   0.0000   0.0000   0.0000   0.2311
 -14.000  -0.4639   0.17169   0.16606  -0.0086  1.0000  0.0343  -1.4091   0.0000   0.0000   0.0000   0.2249
 -13.500  -0.4527   0.16622   0.16063  -0.0123  1.0000  0.0355  -1.5047   0.0000   0.0000   0.0000   0.2164
 -13.000  -0.4374   0.15875   0.15318  -0.0140  1.0000  0.0367  -1.4754   0.0000   0.0000   0.0000   0.2118
 -12.500  -0.4240   0.15231   0.14676  -0.0162  1.0000  0.0389  -1.4759   0.0000   0.0000   0.0000   0.2059
 -12.000  -0.4149   0.14672   0.14121  -0.0195  1.0000  0.0406  -1.5591   0.0000   0.0000   0.0000   0.1972
 -11.500  -0.4015   0.13959   0.13413  -0.0210  1.0000  0.0418  -1.5386   0.0000   0.0000   0.0000   0.1920
 -11.000  -0.3896   0.13330   0.12787  -0.0228  1.0000  0.0445  -1.5278   0.0000   0.0000   0.0000   0.1860
 -10.500  -0.3874   0.12871   0.12337  -0.0269  1.0000  0.0462  -1.6591   0.0000   0.0000   0.0000   0.1754
 -10.000  -0.3700   0.12105   0.11573  -0.0266  1.0000  0.0500  -1.5418   0.0000   0.0000   0.0000   0.1732
  -9.500  -0.3712   0.11671   0.11151  -0.0306  1.0000  0.0520  -1.6770   0.0000   0.0000   0.0000   0.1630
  -9.000  -0.3541   0.10918   0.10403  -0.0295  1.0000  0.0549  -1.5538   0.0000   0.0000   0.0000   0.1621
  -8.500  -0.3553   0.10453   0.09950  -0.0319  1.0000  0.0578  -1.6373   0.0000   0.0000   0.0000   0.1560
  -8.000  -0.3477   0.09832   0.09340  -0.0311  1.0000  0.0599  -1.5835   0.0000   0.0000   0.0000   0.1568
  -7.500  -0.3518   0.09382   0.08906  -0.0305  1.0000  0.0632  -1.6117   0.0000   0.0000   0.0000   0.1599
  -7.000  -0.3743   0.09078   0.08626  -0.0317  1.0000  0.0644  -1.7790   0.0000   0.0000   0.0000   0.1627
  -6.500  -0.3687   0.08492   0.08048  -0.0269  1.0000  0.0675  -1.6900   0.0000   0.0000   0.0000   0.1744
  -6.000  -0.3735   0.08002   0.07568  -0.0328  1.0000  0.0710  -1.8485   0.0000   0.0000   0.0000   0.1601
  -5.500  -0.3687   0.07455   0.07030  -0.0289  1.0000  0.0749  -1.7674   0.0000   0.0000   0.0000   0.1697
  -5.000  -0.3562   0.06855   0.06431  -0.0319  1.0000  0.0816  -1.7850   0.0000   0.0000   0.0000   0.1586
  -4.500  -0.3325   0.06208   0.05778  -0.0364  1.0000  0.0902  -1.7869   0.0000   0.0000   0.0000   0.1389
  -3.500  -0.1312   0.03341   0.02700  -0.0735  0.9809  0.0517  -2.3230   0.0000   0.0000   0.0000  -0.3151
  -3.000  -0.0437   0.02560   0.01758  -0.0808  0.9723  0.0520  -2.3632   0.0000   0.0000   0.0000  -1.6149
  -2.500   0.0344   0.02208   0.01336  -0.0852  0.9601  0.0616  -2.0690   0.0000   0.0000   0.0000   2.7416
  -2.000   0.1130   0.01975   0.01064  -0.0892  0.9477  0.0820  -1.7069   0.0000   0.0000   0.0000   1.0441
  -1.500   0.1910   0.01806   0.00899  -0.0932  0.9347  0.1273  -1.3515   0.0000   0.0000   0.0000   0.7401
  -1.000   0.2620   0.01670   0.00814  -0.0961  0.9182  0.2573  -1.0147   0.0000   0.0000   0.0000   0.6177
   0.000   0.4142   0.01429   0.00694  -0.1023  0.8862  1.0000  -0.5649   0.0000   0.0000   0.0000   0.4966
   0.500   0.4854   0.01412   0.00650  -0.1044  0.8668  1.0000  -0.6124   0.0000   0.0000   0.0000   0.4642
   1.000   0.5487   0.01404   0.00625  -0.1048  0.8429  1.0000  -0.6578   0.0000   0.0000   0.0000   0.4398
   1.500   0.6102   0.01400   0.00610  -0.1049  0.8174  1.0000  -0.7052   0.0000   0.0000   0.0000   0.4202
   2.000   0.6698   0.01403   0.00606  -0.1045  0.7903  1.0000  -0.7545   0.0000   0.0000   0.0000   0.4040
   2.500   0.7275   0.01417   0.00618  -0.1038  0.7620  1.0000  -0.8068   0.0000   0.0000   0.0000   0.3903
   3.000   0.7837   0.01444   0.00645  -0.1029  0.7332  1.0000  -0.9324   0.0000   0.0000   0.0000   0.3785
   3.500   0.8386   0.01483   0.00691  -0.1019  0.7045  1.0000  -1.2078   0.0000   0.0000   0.0000   0.3682
   4.000   0.8925   0.01532   0.00752  -0.1007  0.6760  1.0000  -1.5391   0.0000   0.0000   0.0000   0.3591
   4.500   0.9455   0.01590   0.00831  -0.0993  0.6474  1.0000  -1.9457   0.0000   0.0000   0.0000   0.3508
   5.000   0.9946   0.01625   0.00881  -0.0965  0.6033  1.0000  -2.3841   0.0000   0.0000   0.0000   0.3423
   5.500   1.0322   0.01645   0.00883  -0.0910  0.5116  1.0000  -2.8373   0.0000   0.0000   0.0000   0.3328
   6.000   1.0606   0.01766   0.00960  -0.0848  0.3435  1.0000  -3.2485   0.0000   0.0000   0.0000   0.3241
   6.500   1.0602   0.02318   0.01311  -0.0767  0.0779  1.0000  -3.4242   0.0000   0.0000   0.0000   0.3159
   7.000   1.0824   0.02641   0.01639  -0.0713  0.0562  1.0000  -3.6962   0.0000   0.0000   0.0000   0.3089
   7.500   1.1079   0.02982   0.01982  -0.0665  0.0457  1.0000  -4.0017   0.0000   0.0000   0.0000   0.3025
   8.000   1.1534   0.03406   0.02423  -0.0641  0.0390  1.0000  -4.4019   0.0000   0.0000   0.0000   0.2974
   8.500   1.2026   0.03925   0.02990  -0.0624  0.0338  1.0000  -4.7789   0.0000   0.0000   0.0000   0.2932
   9.000   1.2402   0.04578   0.03722  -0.0593  0.0322  1.0000  -4.9852   0.0000   0.0000   0.0000   0.2885
   9.500   1.2569   0.05246   0.04459  -0.0549  0.0304  1.0000  -5.1569   0.0000   0.0000   0.0000   0.2838
  10.000   1.2462   0.05934   0.05240  -0.0482  0.0295  1.0000  -5.1116   0.0000   0.0000   0.0000   0.2783
  10.500   1.2215   0.06624   0.05991  -0.0418  0.0296  1.0000  -5.0451   0.0000   0.0000   0.0000   0.2733
  11.000   1.1900   0.07410   0.06827  -0.0384  0.0300  1.0000  -4.9555   0.0000   0.0000   0.0000   0.2707
  11.500   1.1560   0.08345   0.07801  -0.0386  0.0303  1.0000  -4.8482   0.0000   0.0000   0.0000   0.2712
  12.000   1.1243   0.09432   0.08917  -0.0421  0.0307  1.0000  -4.7457   0.0000   0.0000   0.0000   0.2746
  12.500   1.0587   0.11381   0.10914  -0.0560  0.0325  1.0000  -4.1525   0.0000   0.0000   0.0000   0.2897
  13.000   1.0260   0.13306   0.12846  -0.0683  0.0348  1.0000  -3.7172   0.0000   0.0000   0.0000   0.3031


