xflr5 v6.61

 Calculated polar for: NACA4412_9_00

 1 1 Reynolds number fixed          Mach number fixed         

 xtrf =   1.000 (top)        1.000 (bottom)
 Mach =   0.200     Re =     0.060 e 6     Ncrit =   9.000

  alpha     CL        CD       CDp       Cm    Top Xtr Bot Xtr   Cpmin    Chinge    XCp    
 ------- -------- --------- --------- -------- ------- ------- -------- --------- ---------
 -21.000  -0.6488   0.25667   0.24914   0.0271  1.0000  0.0480  -1.4810   0.0000   0.0000   0.0000   0.2761
 -20.500  -0.6313   0.25077   0.24324   0.0232  1.0000  0.0504  -1.4637   0.0000   0.0000   0.0000   0.2716
 -20.000  -0.6157   0.24645   0.23893   0.0185  1.0000  0.0519  -1.4899   0.0000   0.0000   0.0000   0.2654
 -19.500  -0.5971   0.23873   0.23122   0.0155  1.0000  0.0535  -1.4379   0.0000   0.0000   0.0000   0.2617
 -19.000  -0.5797   0.23260   0.22509   0.0120  1.0000  0.0561  -1.4065   0.0000   0.0000   0.0000   0.2569
 -18.500  -0.5653   0.22841   0.22092   0.0075  1.0000  0.0579  -1.4326   0.0000   0.0000   0.0000   0.2499
 -18.000  -0.5462   0.22039   0.21291   0.0049  1.0000  0.0600  -1.4010   0.0000   0.0000   0.0000   0.2460
 -17.500  -0.5300   0.21469   0.20722   0.0014  1.0000  0.0634  -1.4130   0.0000   0.0000   0.0000   0.2401
 -17.000  -0.5142   0.20849   0.20105  -0.0019  1.0000  0.0656  -1.4254   0.0000   0.0000   0.0000   0.2341
 -16.500  -0.4977   0.20229   0.19486  -0.0048  1.0000  0.0697  -1.4169   0.0000   0.0000   0.0000   0.2284
 -16.000  -0.4846   0.19693   0.18955  -0.0084  1.0000  0.0717  -1.4513   0.0000   0.0000   0.0000   0.2211
 -15.500  -0.4666   0.18973   0.18236  -0.0105  1.0000  0.0756  -1.4145   0.0000   0.0000   0.0000   0.2161
 -15.000  -0.4597   0.18642   0.17910  -0.0147  1.0000  0.0781  -1.4842   0.0000   0.0000   0.0000   0.2071
 -14.500  -0.4380   0.17734   0.17003  -0.0158  1.0000  0.0823  -1.4083   0.0000   0.0000   0.0000   0.2031
 -14.000  -0.4334   0.17397   0.16672  -0.0198  1.0000  0.0854  -1.4747   0.0000   0.0000   0.0000   0.1941
 -13.500  -0.4124   0.16523   0.15800  -0.0206  1.0000  0.0909  -1.3964   0.0000   0.0000   0.0000   0.1898
 -13.000  -0.4007   0.15901   0.15184  -0.0228  1.0000  0.0953  -1.3877   0.0000   0.0000   0.0000   0.1832
 -12.500  -0.3965   0.15482   0.14771  -0.0257  1.0000  0.1006  -1.4323   0.0000   0.0000   0.0000   0.1755
 -12.000  -0.3782   0.14682   0.13974  -0.0264  1.0000  0.1061  -1.3976   0.0000   0.0000   0.0000   0.1707
 -11.500  -0.3708   0.14103   0.13403  -0.0284  1.0000  0.1106  -1.4269   0.0000   0.0000   0.0000   0.1643
 -11.000  -0.3670   0.13622   0.12931  -0.0304  1.0000  0.1169  -1.4626   0.0000   0.0000   0.0000   0.1584
 -10.500  -0.3524   0.12903   0.12218  -0.0307  1.0000  0.1237  -1.4324   0.0000   0.0000   0.0000   0.1542
 -10.000  -0.3446   0.12312   0.11635  -0.0315  1.0000  0.1312  -1.4303   0.0000   0.0000   0.0000   0.1505
  -9.750  -0.3523   0.12200   0.11532  -0.0330  1.0000  0.1347  -1.4840   0.0000   0.0000   0.0000   0.1486
  -9.500  -0.3392   0.11750   0.11083  -0.0320  1.0000  0.1395  -1.4302   0.0000   0.0000   0.0000   0.1479
  -9.250  -0.3457   0.11610   0.10952  -0.0330  1.0000  0.1436  -1.4707   0.0000   0.0000   0.0000   0.1472
  -9.000  -0.3368   0.11216   0.10563  -0.0323  1.0000  0.1472  -1.4365   0.0000   0.0000   0.0000   0.1469
  -8.750  -0.3387   0.11008   0.10363  -0.0324  1.0000  0.1522  -1.4474   0.0000   0.0000   0.0000   0.1474
  -8.500  -0.3414   0.10760   0.10124  -0.0324  1.0000  0.1549  -1.4618   0.0000   0.0000   0.0000   0.1484
  -8.250  -0.3359   0.10459   0.09828  -0.0314  1.0000  0.1605  -1.4321   0.0000   0.0000   0.0000   0.1499
  -8.000  -0.3557   0.10435   0.09820  -0.0317  1.0000  0.1632  -1.5039   0.0000   0.0000   0.0000   0.1553
  -7.750  -0.3390   0.09973   0.09359  -0.0298  1.0000  0.1690  -1.4307   0.0000   0.0000   0.0000   0.1561
  -7.500  -0.3581   0.09921   0.09323  -0.0288  1.0000  0.1727  -1.4839   0.0000   0.0000   0.0000   0.1645
  -7.250  -0.3510   0.09566   0.08973  -0.0269  1.0000  0.1772  -1.4580   0.0000   0.0000   0.0000   0.1681
  -7.000  -0.3664   0.09463   0.08883  -0.0247  1.0000  0.1818  -1.4871   0.0000   0.0000   0.0000   0.1779
  -6.500  -0.3812   0.09061   0.08500  -0.0215  1.0000  0.1921  -1.5083   0.0000   0.0000   0.0000   0.1897
  -6.250  -0.3850   0.08812   0.08259  -0.0198  1.0000  0.1973  -1.5085   0.0000   0.0000   0.0000   0.1948
  -6.000  -0.3992   0.08683   0.08140  -0.0208  1.0000  0.2041  -1.5540   0.0000   0.0000   0.0000   0.1947
  -5.750  -0.3950   0.08380   0.07843  -0.0175  1.0000  0.2120  -1.5163   0.0000   0.0000   0.0000   0.2027
  -5.500  -0.3991   0.08136   0.07606  -0.0168  1.0000  0.2189  -1.5224   0.0000   0.0000   0.0000   0.2050
  -5.000  -0.4044   0.07669   0.07148  -0.0185  1.0000  0.2385  -1.5471   0.0000   0.0000   0.0000   0.2016
  -4.750  -0.4018   0.07409   0.06890  -0.0187  1.0000  0.2498  -1.5392   0.0000   0.0000   0.0000   0.2010
  -4.500  -0.3975   0.07132   0.06615  -0.0182  1.0000  0.2617  -1.5197   0.0000   0.0000   0.0000   0.2020
  -4.250  -0.3922   0.06850   0.06335  -0.0170  1.0000  0.2743  -1.4920   0.0000   0.0000   0.0000   0.2044
  -4.000  -0.3863   0.06577   0.06066  -0.0154  1.0000  0.2882  -1.4575   0.0000   0.0000   0.0000   0.2081
  -3.250  -0.2643   0.04613   0.03939  -0.0483  1.0000  0.1630  -1.7502   0.0000   0.0000   0.0000   0.0640
  -3.000  -0.2288   0.04086   0.03353  -0.0521  1.0000  0.1413  -1.8119   0.0000   0.0000   0.0000   0.0185
  -2.750  -0.1993   0.03770   0.02988  -0.0541  1.0000  0.1405  -1.8028   0.0000   0.0000   0.0000  -0.0258
  -2.500  -0.1694   0.03489   0.02649  -0.0557  1.0000  0.1396  -1.7859   0.0000   0.0000   0.0000  -0.0833
  -2.250  -0.1400   0.03274   0.02364  -0.0567  1.0000  0.1441  -1.7606   0.0000   0.0000   0.0000  -0.1609
  -2.000  -0.1167   0.03149   0.02222  -0.0568  1.0000  0.1511  -1.6994   0.0000   0.0000   0.0000  -0.2430
  -1.750  -0.0925   0.03042   0.02084  -0.0569  1.0000  0.1608  -1.6402   0.0000   0.0000   0.0000  -0.3727
  -1.500  -0.0470   0.02944   0.01960  -0.0606  0.9931  0.1790  -1.5291   0.0000   0.0000   0.0000  -1.0511
  -1.250   0.0017   0.02871   0.01867  -0.0648  0.9830  0.2072  -1.3951   0.0000   0.0000   0.0000  37.6674
  -1.000   0.0497   0.02818   0.01809  -0.0687  0.9730  0.2493  -1.2636   0.0000   0.0000   0.0000   1.6417
  -0.750   0.0948   0.02763   0.01769  -0.0721  0.9623  0.3118  -1.1317   0.0000   0.0000   0.0000   1.0151
  -0.500   0.1403   0.02658   0.01730  -0.0756  0.9525  0.4401  -0.9956   0.0000   0.0000   0.0000   0.7908
  -0.250   0.1812   0.02501   0.01693  -0.0772  0.9409  1.0000  -0.8799   0.0000   0.0000   0.0000   0.6768
   0.000   0.2238   0.02567   0.01710  -0.0804  0.9279  1.0000  -0.7449   0.0000   0.0000   0.0000   0.6094
   0.250   0.2659   0.02629   0.01739  -0.0834  0.9152  1.0000  -0.6210   0.0000   0.0000   0.0000   0.5636
   0.500   0.3065   0.02687   0.01772  -0.0862  0.9028  1.0000  -0.5459   0.0000   0.0000   0.0000   0.5305
   0.750   0.3459   0.02741   0.01806  -0.0886  0.8904  1.0000  -0.5706   0.0000   0.0000   0.0000   0.5052
   1.000   0.3798   0.02795   0.01845  -0.0901  0.8775  1.0000  -0.5924   0.0000   0.0000   0.0000   0.4860
   1.250   0.4152   0.02847   0.01884  -0.0917  0.8651  1.0000  -0.6160   0.0000   0.0000   0.0000   0.4694
   1.500   0.4518   0.02894   0.01921  -0.0935  0.8535  1.0000  -0.6415   0.0000   0.0000   0.0000   0.4551
   1.750   0.4834   0.02947   0.01967  -0.0944  0.8412  1.0000  -0.6644   0.0000   0.0000   0.0000   0.4432
   2.000   0.5131   0.03003   0.02018  -0.0950  0.8289  1.0000  -0.6867   0.0000   0.0000   0.0000   0.4329
   2.250   0.5415   0.03063   0.02074  -0.0954  0.8168  1.0000  -0.7090   0.0000   0.0000   0.0000   0.4236
   2.500   0.5693   0.03127   0.02136  -0.0957  0.8049  1.0000  -0.7319   0.0000   0.0000   0.0000   0.4153
   2.750   0.5974   0.03190   0.02199  -0.0959  0.7934  1.0000  -0.7560   0.0000   0.0000   0.0000   0.4076
   3.000   0.6295   0.03240   0.02250  -0.0967  0.7829  1.0000  -0.7847   0.0000   0.0000   0.0000   0.4003
   3.250   0.6702   0.03255   0.02271  -0.0983  0.7738  1.0000  -0.8225   0.0000   0.0000   0.0000   0.3933
   3.500   0.6913   0.03340   0.02358  -0.0976  0.7615  1.0000  -0.8457   0.0000   0.0000   0.0000   0.3875
   3.750   0.7131   0.03426   0.02449  -0.0969  0.7496  1.0000  -0.8715   0.0000   0.0000   0.0000   0.3820
   4.000   0.7381   0.03501   0.02529  -0.0966  0.7383  1.0000  -0.9036   0.0000   0.0000   0.0000   0.3767
   4.250   0.7884   0.03454   0.02497  -0.0987  0.7310  1.0000  -0.9976   0.0000   0.0000   0.0000   0.3708
   4.500   0.8067   0.03555   0.02606  -0.0975  0.7183  1.0000  -1.0685   0.0000   0.0000   0.0000   0.3663
   4.750   0.8255   0.03657   0.02716  -0.0964  0.7057  1.0000  -1.1493   0.0000   0.0000   0.0000   0.3619
   5.000   0.8465   0.03748   0.02821  -0.0954  0.6933  1.0000  -1.2437   0.0000   0.0000   0.0000   0.3577
   5.250   0.8720   0.03813   0.02899  -0.0948  0.6814  1.0000  -1.3568   0.0000   0.0000   0.0000   0.3534
   5.500   0.9269   0.03688   0.02796  -0.0961  0.6734  1.0000  -1.5647   0.0000   0.0000   0.0000   0.3481
   5.750   0.9491   0.03756   0.02882  -0.0949  0.6597  1.0000  -1.6877   0.0000   0.0000   0.0000   0.3441
   6.000   0.9747   0.03796   0.02939  -0.0937  0.6458  1.0000  -1.8348   0.0000   0.0000   0.0000   0.3400
   6.250   1.0065   0.03779   0.02943  -0.0927  0.6315  1.0000  -2.0073   0.0000   0.0000   0.0000   0.3357
   6.500   1.0563   0.03598   0.02790  -0.0922  0.6156  1.0000  -2.2505   0.0000   0.0000   0.0000   0.3306
   6.750   1.0825   0.03527   0.02739  -0.0895  0.5923  1.0000  -2.4369   0.0000   0.0000   0.0000   0.3257
   7.000   1.1501   0.03036   0.02256  -0.0880  0.5568  1.0000  -2.8521   0.0000   0.0000   0.0000   0.3190
   7.250   1.1726   0.02935   0.02170  -0.0844  0.5229  1.0000  -3.0651   0.0000   0.0000   0.0000   0.3141
   7.500   1.1956   0.02806   0.02045  -0.0805  0.4826  1.0000  -3.2851   0.0000   0.0000   0.0000   0.3091
   7.750   1.2032   0.02748   0.01993  -0.0751  0.4326  1.0000  -3.4315   0.0000   0.0000   0.0000   0.3038
   8.000   1.1962   0.02763   0.01991  -0.0681  0.3562  1.0000  -3.5037   0.0000   0.0000   0.0000   0.2979
   8.250   1.1781   0.02943   0.02083  -0.0608  0.2620  1.0000  -3.5176   0.0000   0.0000   0.0000   0.2921
   8.500   1.1642   0.03218   0.02285  -0.0552  0.2060  1.0000  -3.5322   0.0000   0.0000   0.0000   0.2876
   8.750   1.1621   0.03486   0.02510  -0.0514  0.1714  1.0000  -3.5887   0.0000   0.0000   0.0000   0.2841
   9.000   1.1727   0.03729   0.02727  -0.0488  0.1465  1.0000  -3.6925   0.0000   0.0000   0.0000   0.2812
   9.250   1.2037   0.03984   0.02949  -0.0484  0.1258  1.0000  -3.8712   0.0000   0.0000   0.0000   0.2794
   9.500   1.2416   0.04271   0.03236  -0.0491  0.1103  1.0000  -4.0628   0.0000   0.0000   0.0000   0.2785
   9.750   1.2852   0.04637   0.03605  -0.0506  0.1005  1.0000  -4.2554   0.0000   0.0000   0.0000   0.2779
  10.000   1.3034   0.04939   0.03941  -0.0492  0.0943  1.0000  -4.3584   0.0000   0.0000   0.0000   0.2760
  10.250   1.3193   0.05306   0.04348  -0.0476  0.0911  1.0000  -4.4283   0.0000   0.0000   0.0000   0.2740
  10.500   1.3257   0.05675   0.04765  -0.0452  0.0895  1.0000  -4.4698   0.0000   0.0000   0.0000   0.2717
  10.750   1.3282   0.06038   0.05166  -0.0427  0.0878  1.0000  -4.5171   0.0000   0.0000   0.0000   0.2694
  11.000   1.3386   0.06440   0.05580  -0.0414  0.0851  1.0000  -4.6206   0.0000   0.0000   0.0000   0.2679
  11.250   1.3228   0.06774   0.05956  -0.0375  0.0847  1.0000  -4.5936   0.0000   0.0000   0.0000   0.2651
  11.500   1.3047   0.07120   0.06335  -0.0340  0.0845  1.0000  -4.5601   0.0000   0.0000   0.0000   0.2625
  11.750   1.2851   0.07498   0.06743  -0.0313  0.0845  1.0000  -4.5192   0.0000   0.0000   0.0000   0.2605
  12.000   1.2647   0.07917   0.07188  -0.0296  0.0846  1.0000  -4.4710   0.0000   0.0000   0.0000   0.2592
  12.250   1.2441   0.08380   0.07674  -0.0287  0.0849  1.0000  -4.4168   0.0000   0.0000   0.0000   0.2586
  12.500   1.2241   0.08888   0.08202  -0.0288  0.0852  1.0000  -4.3594   0.0000   0.0000   0.0000   0.2586
  13.000   1.1320   0.10537   0.09906  -0.0367  0.0920  1.0000  -3.8934   0.0000   0.0000   0.0000   0.2670
  13.250   1.1142   0.11272   0.10650  -0.0401  0.0929  1.0000  -3.7995   0.0000   0.0000   0.0000   0.2702
  13.500   0.8069   0.13469   0.12880  -0.0505  0.1247  1.0000  -2.2294   0.0000   0.0000   0.0000   0.2995
  13.750   1.0147   0.14649   0.14025  -0.0642  0.1092  1.0000  -2.8981   0.0000   0.0000   0.0000   0.2978
  14.000   0.7653   0.15232   0.14640  -0.0607  0.1549  1.0000  -1.7941   0.0000   0.0000   0.0000   0.3167
  14.250   0.9539   0.18549   0.17901  -0.0920  0.2262  1.0000  -1.9604   0.0000   0.0000   0.0000   0.3319
  14.500   0.7222   0.16741   0.16149  -0.0718  0.2295  1.0000  -1.3939   0.0000   0.0000   0.0000   0.3372
  14.750   0.9668   0.19451   0.18805  -0.0945  0.2154  1.0000  -1.9595   0.0000   0.0000   0.0000   0.3326
  15.000   0.7226   0.17373   0.16786  -0.0741  0.2203  1.0000  -1.3629   0.0000   0.0000   0.0000   0.3399
  15.500   0.7271   0.18007   0.17425  -0.0761  0.2092  1.0000  -1.3458   0.0000   0.0000   0.0000   0.3415
  16.000   0.7366   0.18667   0.18091  -0.0776  0.1958  1.0000  -1.3471   0.0000   0.0000   0.0000   0.3416
  16.500   0.7401   0.19293   0.18720  -0.0800  0.1859  1.0000  -1.3149   0.0000   0.0000   0.0000   0.3438
  17.000   0.7476   0.19955   0.19387  -0.0820  0.1750  1.0000  -1.3194   0.0000   0.0000   0.0000   0.3448
  18.500   0.7655   0.21913   0.21358  -0.0890  0.1458  1.0000  -1.2949   0.0000   0.0000   0.0000   0.3495
  19.000   0.7721   0.22580   0.22030  -0.0914  0.1364  1.0000  -1.2831   0.0000   0.0000   0.0000   0.3509
  19.500   0.7773   0.23237   0.22692  -0.0941  0.1279  1.0000  -1.2593   0.0000   0.0000   0.0000   0.3529
  20.000   0.7817   0.23911   0.23369  -0.0970  0.1214  1.0000  -1.2227   0.0000   0.0000   0.0000   0.3553


