xflr5 v6.61

 Calculated polar for: NACA4412_7_50

 1 1 Reynolds number fixed          Mach number fixed         

 xtrf =   1.000 (top)        1.000 (bottom)
 Mach =   0.200     Re =     0.070 e 6     Ncrit =   7.000

  alpha     CL        CD       CDp       Cm    Top Xtr Bot Xtr   Cpmin    Chinge    XCp    
 ------- -------- --------- --------- -------- ------- ------- -------- --------- ---------
 -22.000  -0.7204   0.27220   0.26536   0.0451  1.0000  0.0272  -1.5323   0.0000   0.0000   0.0000   0.2994
 -21.500  -0.7029   0.26606   0.25920   0.0411  1.0000  0.0284  -1.4904   0.0000   0.0000   0.0000   0.2958
 -21.000  -0.6854   0.26010   0.25323   0.0369  1.0000  0.0297  -1.4706   0.0000   0.0000   0.0000   0.2917
 -20.500  -0.6680   0.25462   0.24775   0.0324  1.0000  0.0306  -1.5092   0.0000   0.0000   0.0000   0.2868
 -20.000  -0.6508   0.24843   0.24157   0.0283  1.0000  0.0311  -1.5249   0.0000   0.0000   0.0000   0.2823
 -19.500  -0.6329   0.24155   0.23468   0.0250  1.0000  0.0325  -1.4848   0.0000   0.0000   0.0000   0.2787
 -19.000  -0.6154   0.23541   0.22854   0.0212  1.0000  0.0341  -1.4803   0.0000   0.0000   0.0000   0.2741
 -18.500  -0.5989   0.23008   0.22321   0.0169  1.0000  0.0355  -1.5151   0.0000   0.0000   0.0000   0.2682
 -18.000  -0.5813   0.22303   0.21618   0.0137  1.0000  0.0367  -1.4799   0.0000   0.0000   0.0000   0.2640
 -17.500  -0.5641   0.21673   0.20988   0.0104  1.0000  0.0390  -1.4521   0.0000   0.0000   0.0000   0.2592
 -17.000  -0.5486   0.21135   0.20452   0.0063  1.0000  0.0405  -1.4760   0.0000   0.0000   0.0000   0.2526
 -16.500  -0.5317   0.20436   0.19755   0.0034  1.0000  0.0416  -1.4442   0.0000   0.0000   0.0000   0.2477
 -16.000  -0.5149   0.19778   0.19098   0.0005  1.0000  0.0438  -1.3998   0.0000   0.0000   0.0000   0.2426
 -15.500  -0.5005   0.19218   0.18540  -0.0031  1.0000  0.0458  -1.4159   0.0000   0.0000   0.0000   0.2357
 -15.000  -0.4853   0.18545   0.17871  -0.0059  1.0000  0.0470  -1.4306   0.0000   0.0000   0.0000   0.2299
 -14.500  -0.4694   0.17881   0.17207  -0.0083  1.0000  0.0497  -1.4190   0.0000   0.0000   0.0000   0.2246
 -14.000  -0.4583   0.17364   0.16694  -0.0120  1.0000  0.0518  -1.4840   0.0000   0.0000   0.0000   0.2165
 -13.500  -0.4419   0.16615   0.15948  -0.0136  1.0000  0.0544  -1.4482   0.0000   0.0000   0.0000   0.2119
 -13.000  -0.4322   0.16096   0.15434  -0.0170  1.0000  0.0578  -1.5007   0.0000   0.0000   0.0000   0.2039
 -12.500  -0.4168   0.15359   0.14699  -0.0184  1.0000  0.0605  -1.4666   0.0000   0.0000   0.0000   0.1990
 -12.000  -0.4074   0.14803   0.14148  -0.0212  1.0000  0.0639  -1.5010   0.0000   0.0000   0.0000   0.1914
 -11.500  -0.3949   0.14118   0.13469  -0.0229  1.0000  0.0661  -1.4908   0.0000   0.0000   0.0000   0.1857
 -11.000  -0.3853   0.13533   0.12889  -0.0250  1.0000  0.0701  -1.4982   0.0000   0.0000   0.0000   0.1790
 -10.500  -0.3758   0.12899   0.12263  -0.0268  1.0000  0.0725  -1.5026   0.0000   0.0000   0.0000   0.1728
 -10.000  -0.3675   0.12327   0.11697  -0.0285  1.0000  0.0771  -1.5024   0.0000   0.0000   0.0000   0.1668
  -9.500  -0.3583   0.11695   0.11074  -0.0295  1.0000  0.0805  -1.4843   0.0000   0.0000   0.0000   0.1621
  -9.000  -0.3614   0.11285   0.10679  -0.0322  1.0000  0.0853  -1.5681   0.0000   0.0000   0.0000   0.1559
  -8.500  -0.3507   0.10637   0.10040  -0.0317  1.0000  0.0919  -1.5427   0.0000   0.0000   0.0000   0.1551
  -8.000  -0.3465   0.10069   0.09485  -0.0311  1.0000  0.0964  -1.5497   0.0000   0.0000   0.0000   0.1558
  -7.500  -0.3647   0.09771   0.09212  -0.0310  1.0000  0.1006  -1.6473   0.0000   0.0000   0.0000   0.1615
  -7.000  -0.3618   0.09195   0.08648  -0.0278  1.0000  0.1053  -1.6145   0.0000   0.0000   0.0000   0.1699
  -6.500  -0.3764   0.08790   0.08265  -0.0295  1.0000  0.1095  -1.7102   0.0000   0.0000   0.0000   0.1689
  -6.000  -0.3763   0.08277   0.07762  -0.0289  1.0000  0.1166  -1.7124   0.0000   0.0000   0.0000   0.1708
  -5.500  -0.3724   0.07714   0.07210  -0.0277  1.0000  0.1226  -1.6943   0.0000   0.0000   0.0000   0.1734
  -3.500  -0.2206   0.04082   0.03415  -0.0569  1.0000  0.0708  -2.1921   0.0000   0.0000   0.0000  -0.0110
  -3.000  -0.1469   0.03319   0.02538  -0.0637  0.9961  0.0720  -2.1900   0.0000   0.0000   0.0000  -0.1882
  -2.500  -0.0557   0.02783   0.01879  -0.0714  0.9847  0.0807  -2.0047   0.0000   0.0000   0.0000  -1.0420
  -2.000   0.0317   0.02465   0.01472  -0.0773  0.9715  0.0999  -1.7532   0.0000   0.0000   0.0000   2.7066
  -1.500   0.1141   0.02278   0.01272  -0.0824  0.9558  0.1412  -1.4235   0.0000   0.0000   0.0000   0.9756
  -1.000   0.1930   0.02139   0.01159  -0.0867  0.9381  0.2442  -1.1209   0.0000   0.0000   0.0000   0.7010
  -0.500   0.2709   0.01870   0.01080  -0.0903  0.9216  1.0000  -0.8110   0.0000   0.0000   0.0000   0.5837
   0.000   0.3515   0.01896   0.01041  -0.0948  0.9011  1.0000  -0.5391   0.0000   0.0000   0.0000   0.5193
   0.500   0.4282   0.01911   0.01018  -0.0983  0.8796  1.0000  -0.5879   0.0000   0.0000   0.0000   0.4788
   1.000   0.4980   0.01922   0.01007  -0.1004  0.8563  1.0000  -0.6360   0.0000   0.0000   0.0000   0.4503
   1.500   0.5651   0.01931   0.01004  -0.1017  0.8325  1.0000  -0.6854   0.0000   0.0000   0.0000   0.4282
   2.000   0.6307   0.01938   0.01006  -0.1025  0.8090  1.0000  -0.7377   0.0000   0.0000   0.0000   0.4104
   2.500   0.6981   0.01934   0.01004  -0.1034  0.7869  1.0000  -0.7959   0.0000   0.0000   0.0000   0.3956
   3.000   0.7558   0.01963   0.01040  -0.1027  0.7609  1.0000  -0.8534   0.0000   0.0000   0.0000   0.3830
   3.500   0.8121   0.02004   0.01095  -0.1019  0.7349  1.0000  -1.0468   0.0000   0.0000   0.0000   0.3721
   4.000   0.8679   0.02052   0.01161  -0.1009  0.7093  1.0000  -1.3216   0.0000   0.0000   0.0000   0.3625
   4.500   0.9238   0.02103   0.01238  -0.0998  0.6839  1.0000  -1.6417   0.0000   0.0000   0.0000   0.3538
   5.000   0.9791   0.02157   0.01321  -0.0984  0.6573  1.0000  -2.0321   0.0000   0.0000   0.0000   0.3457
   5.500   1.0295   0.02193   0.01394  -0.0956  0.6203  1.0000  -2.4602   0.0000   0.0000   0.0000   0.3375
   6.000   1.0698   0.02099   0.01295  -0.0886  0.5360  1.0000  -2.9105   0.0000   0.0000   0.0000   0.3269
   6.500   1.0975   0.02141   0.01332  -0.0814  0.4269  1.0000  -3.3134   0.0000   0.0000   0.0000   0.3175
   7.000   1.0858   0.02616   0.01602  -0.0711  0.1356  1.0000  -3.4525   0.0000   0.0000   0.0000   0.3082
   7.500   1.0940   0.03061   0.02011  -0.0644  0.0887  1.0000  -3.6354   0.0000   0.0000   0.0000   0.3011
   8.000   1.1127   0.03441   0.02386  -0.0589  0.0713  1.0000  -3.8735   0.0000   0.0000   0.0000   0.2945
   8.500   1.1679   0.03899   0.02839  -0.0576  0.0579  1.0000  -4.2481   0.0000   0.0000   0.0000   0.2903
   9.000   1.2230   0.04483   0.03484  -0.0565  0.0500  1.0000  -4.6008   0.0000   0.0000   0.0000   0.2866
   9.500   1.2590   0.05147   0.04209  -0.0539  0.0456  1.0000  -4.8648   0.0000   0.0000   0.0000   0.2826
  10.000   1.2619   0.05827   0.04989  -0.0481  0.0435  1.0000  -4.9106   0.0000   0.0000   0.0000   0.2774
  10.500   1.2474   0.06540   0.05780  -0.0420  0.0434  1.0000  -4.8848   0.0000   0.0000   0.0000   0.2724
  11.000   1.2170   0.07286   0.06588  -0.0369  0.0437  1.0000  -4.8008   0.0000   0.0000   0.0000   0.2685
  11.500   1.1793   0.08172   0.07524  -0.0354  0.0442  1.0000  -4.6764   0.0000   0.0000   0.0000   0.2676
  12.000   1.1389   0.09255   0.08646  -0.0381  0.0449  1.0000  -4.5151   0.0000   0.0000   0.0000   0.2703
  12.500   1.1004   0.10545   0.09963  -0.0443  0.0456  1.0000  -4.3230   0.0000   0.0000   0.0000   0.2766
  13.000   1.0395   0.12678   0.12122  -0.0599  0.0481  1.0000  -3.7616   0.0000   0.0000   0.0000   0.2937
  13.500   1.0147   0.14601   0.14042  -0.0715  0.0511  1.0000  -3.3392   0.0000   0.0000   0.0000   0.3063
  14.000   1.0012   0.16394   0.15826  -0.0817  0.0565  1.0000  -2.9185   0.0000   0.0000   0.0000   0.3173
  14.500   1.0022   0.18962   0.18391  -0.0942  0.1259  1.0000  -2.2360   0.0000   0.0000   0.0000   0.3299
  15.000   0.9967   0.19832   0.19254  -0.1017  0.1203  1.0000  -2.1072   0.0000   0.0000   0.0000   0.3373
  15.500   1.0096   0.20735   0.20157  -0.1052  0.1163  1.0000  -2.0928   0.0000   0.0000   0.0000   0.3388
  16.000   1.0308   0.21678   0.21105  -0.1069  0.1089  1.0000  -2.1399   0.0000   0.0000   0.0000   0.3376
  16.500   1.0366   0.22385   0.21810  -0.1123  0.1012  1.0000  -2.1114   0.0000   0.0000   0.0000   0.3415
  17.000   1.0491   0.23168   0.22592  -0.1164  0.0933  1.0000  -2.1383   0.0000   0.0000   0.0000   0.3434
  17.500   1.0558   0.23851   0.23270  -0.1228  0.0872  1.0000  -2.0829   0.0000   0.0000   0.0000   0.3480
  18.000   1.0684   0.24625   0.24043  -0.1278  0.0828  1.0000  -2.0712   0.0000   0.0000   0.0000   0.3505
  18.500   1.0884   0.25503   0.24926  -0.1301  0.0779  1.0000  -2.1533   0.0000   0.0000   0.0000   0.3496
  19.000   1.0981   0.26116   0.25536  -0.1366  0.0729  1.0000  -2.0909   0.0000   0.0000   0.0000   0.3536
  19.500   1.1129   0.26871   0.26291  -0.1414  0.0696  1.0000  -2.0832   0.0000   0.0000   0.0000   0.3553
  20.000   1.1327   0.27746   0.27169  -0.1438  0.0644  1.0000  -2.1646   0.0000   0.0000   0.0000   0.3544


