xflr5 v6.61

 Calculated polar for: NACA4412_7_00

 1 1 Reynolds number fixed          Mach number fixed         

 xtrf =   1.000 (top)        1.000 (bottom)
 Mach =   0.200     Re =     0.125 e 6     Ncrit =   9.000

  alpha     CL        CD       CDp       Cm    Top Xtr Bot Xtr   Cpmin    Chinge    XCp    
 ------- -------- --------- --------- -------- ------- ------- -------- --------- ---------
 -17.500  -0.5733   0.21618   0.21105   0.0131  1.0000  0.0232  -1.4890   0.0000   0.0000   0.0000   0.2644
 -17.000  -0.5563   0.20977   0.20465   0.0098  1.0000  0.0243  -1.4675   0.0000   0.0000   0.0000   0.2595
 -16.500  -0.5397   0.20343   0.19831   0.0063  1.0000  0.0256  -1.4719   0.0000   0.0000   0.0000   0.2538
 -16.000  -0.5247   0.19796   0.19286   0.0020  1.0000  0.0263  -1.5353   0.0000   0.0000   0.0000   0.2464
 -15.500  -0.5081   0.19047   0.18538  -0.0004  1.0000  0.0270  -1.4761   0.0000   0.0000   0.0000   0.2420
 -15.000  -0.4923   0.18389   0.17881  -0.0030  1.0000  0.0284  -1.4228   0.0000   0.0000   0.0000   0.2369
 -14.500  -0.4776   0.17773   0.17266  -0.0063  1.0000  0.0304  -1.4281   0.0000   0.0000   0.0000   0.2301
 -14.000  -0.4642   0.17124   0.16621  -0.0093  1.0000  0.0313  -1.4352   0.0000   0.0000   0.0000   0.2233
 -13.500  -0.4491   0.16447   0.15945  -0.0113  1.0000  0.0332  -1.4041   0.0000   0.0000   0.0000   0.2185
 -13.000  -0.4365   0.15829   0.15330  -0.0143  1.0000  0.0351  -1.4570   0.0000   0.0000   0.0000   0.2111
 -12.500  -0.4272   0.15254   0.14759  -0.0177  1.0000  0.0358  -1.5554   0.0000   0.0000   0.0000   0.2025
 -12.000  -0.4111   0.14507   0.14013  -0.0186  1.0000  0.0378  -1.4800   0.0000   0.0000   0.0000   0.1989
 -11.500  -0.4003   0.13901   0.13411  -0.0212  1.0000  0.0401  -1.5208   0.0000   0.0000   0.0000   0.1914
 -11.000  -0.3936   0.13330   0.12847  -0.0244  1.0000  0.0410  -1.6125   0.0000   0.0000   0.0000   0.1825
 -10.500  -0.3782   0.12614   0.12132  -0.0248  1.0000  0.0434  -1.5247   0.0000   0.0000   0.0000   0.1792
 -10.000  -0.3720   0.12072   0.11597  -0.0277  1.0000  0.0459  -1.5948   0.0000   0.0000   0.0000   0.1705
  -9.750  -0.3749   0.11895   0.11426  -0.0303  1.0000  0.0462  -1.6941   0.0000   0.0000   0.0000   0.1645
  -9.500  -0.3608   0.11404   0.10935  -0.0284  1.0000  0.0479  -1.5543   0.0000   0.0000   0.0000   0.1665
  -9.250  -0.3563   0.11119   0.10653  -0.0289  1.0000  0.0499  -1.5429   0.0000   0.0000   0.0000   0.1640
  -9.000  -0.3566   0.10892   0.10432  -0.0306  1.0000  0.0516  -1.6018   0.0000   0.0000   0.0000   0.1596
  -8.750  -0.3630   0.10739   0.10288  -0.0330  1.0000  0.0520  -1.7099   0.0000   0.0000   0.0000   0.1549
  -8.500  -0.3483   0.10268   0.09817  -0.0306  1.0000  0.0539  -1.5608   0.0000   0.0000   0.0000   0.1578
  -8.250  -0.3459   0.10004   0.09557  -0.0307  1.0000  0.0557  -1.5527   0.0000   0.0000   0.0000   0.1571
  -8.000  -0.3483   0.09785   0.09346  -0.0314  1.0000  0.0573  -1.5928   0.0000   0.0000   0.0000   0.1560
  -7.750  -0.3588   0.09650   0.09222  -0.0322  1.0000  0.0579  -1.6834   0.0000   0.0000   0.0000   0.1569
  -7.500  -0.3738   0.09547   0.09131  -0.0319  1.0000  0.0581  -1.7741   0.0000   0.0000   0.0000   0.1616
  -7.250  -0.3548   0.09064   0.08645  -0.0289  1.0000  0.0601  -1.5994   0.0000   0.0000   0.0000   0.1653
  -7.000  -0.3615   0.08883   0.08472  -0.0271  1.0000  0.0615  -1.6129   0.0000   0.0000   0.0000   0.1721
  -6.750  -0.3685   0.08690   0.08288  -0.0265  1.0000  0.0630  -1.6510   0.0000   0.0000   0.0000   0.1753
  -6.500  -0.3772   0.08505   0.08112  -0.0290  1.0000  0.0642  -1.7514   0.0000   0.0000   0.0000   0.1708
  -6.000  -0.3776   0.07963   0.07580  -0.0261  1.0000  0.0664  -1.7240   0.0000   0.0000   0.0000   0.1786
  -5.750  -0.3769   0.07715   0.07335  -0.0262  1.0000  0.0685  -1.7287   0.0000   0.0000   0.0000   0.1785
  -5.250  -0.3686   0.07098   0.06721  -0.0305  1.0000  0.0725  -1.8000   0.0000   0.0000   0.0000   0.1656
  -5.000  -0.3622   0.06829   0.06452  -0.0305  1.0000  0.0753  -1.7751   0.0000   0.0000   0.0000   0.1641
  -4.750  -0.3464   0.06420   0.06036  -0.0363  1.0000  0.0789  -1.8459   0.0000   0.0000   0.0000   0.1436
  -4.500  -0.3383   0.06172   0.05789  -0.0352  1.0000  0.0828  -1.7832   0.0000   0.0000   0.0000   0.1442
  -4.250  -0.3224   0.05826   0.05436  -0.0380  1.0000  0.0880  -1.7782   0.0000   0.0000   0.0000   0.1305
  -4.000  -0.2788   0.05361   0.04940  -0.0482  0.9975  0.1006  -1.8118   0.0000   0.0000   0.0000   0.0753
  -3.500  -0.1869   0.04494   0.04018  -0.0627  0.9866  0.1261  -1.6733   0.0000   0.0000   0.0000  -0.0882
  -3.250  -0.1519   0.04124   0.03650  -0.0658  0.9811  0.1369  -1.5346   0.0000   0.0000   0.0000  -0.1865
  -3.000  -0.0803   0.02979   0.02332  -0.0755  0.9802  0.0711  -2.0601   0.0000   0.0000   0.0000  -0.6986
  -2.750  -0.0368   0.02552   0.01831  -0.0785  0.9760  0.0640  -2.1217   0.0000   0.0000   0.0000  -1.9009
  -2.500   0.0067   0.02336   0.01573  -0.0816  0.9713  0.0682  -2.0002   0.0000   0.0000   0.0000  12.5227
  -2.250   0.0498   0.02131   0.01305  -0.0839  0.9659  0.0719  -1.9113   0.0000   0.0000   0.0000   1.9473
  -2.000   0.0901   0.02017   0.01180  -0.0862  0.9592  0.0819  -1.7179   0.0000   0.0000   0.0000   1.2130
  -1.750   0.1325   0.01909   0.01060  -0.0888  0.9533  0.0961  -1.5602   0.0000   0.0000   0.0000   0.9233
  -1.500   0.1739   0.01818   0.00971  -0.0912  0.9465  0.1190  -1.3892   0.0000   0.0000   0.0000   0.7767
  -1.250   0.2120   0.01742   0.00913  -0.0931  0.9383  0.1573  -1.2104   0.0000   0.0000   0.0000   0.6908
  -1.000   0.2507   0.01663   0.00868  -0.0952  0.9304  0.2325  -1.0506   0.0000   0.0000   0.0000   0.6308
  -0.750   0.2921   0.01505   0.00832  -0.0980  0.9254  0.5289  -0.8722   0.0000   0.0000   0.0000   0.5862
  -0.500   0.3352   0.01405   0.00795  -0.1000  0.9177  1.0000  -0.6977   0.0000   0.0000   0.0000   0.5485
  -0.250   0.3771   0.01398   0.00765  -0.1024  0.9091  1.0000  -0.5393   0.0000   0.0000   0.0000   0.5215
   0.000   0.4224   0.01381   0.00728  -0.1053  0.9025  1.0000  -0.5667   0.0000   0.0000   0.0000   0.4990
   0.250   0.4582   0.01371   0.00706  -0.1064  0.8918  1.0000  -0.5902   0.0000   0.0000   0.0000   0.4817
   0.500   0.4932   0.01359   0.00684  -0.1073  0.8809  1.0000  -0.6140   0.0000   0.0000   0.0000   0.4667
   0.750   0.5274   0.01347   0.00664  -0.1079  0.8697  1.0000  -0.6381   0.0000   0.0000   0.0000   0.4537
   1.000   0.5606   0.01335   0.00645  -0.1084  0.8580  1.0000  -0.6622   0.0000   0.0000   0.0000   0.4420
   1.250   0.5929   0.01324   0.00629  -0.1086  0.8459  1.0000  -0.6865   0.0000   0.0000   0.0000   0.4317
   1.500   0.6241   0.01315   0.00617  -0.1085  0.8330  1.0000  -0.7111   0.0000   0.0000   0.0000   0.4223
   1.750   0.6544   0.01310   0.00607  -0.1083  0.8196  1.0000  -0.7359   0.0000   0.0000   0.0000   0.4137
   2.000   0.6840   0.01308   0.00602  -0.1080  0.8057  1.0000  -0.7612   0.0000   0.0000   0.0000   0.4059
   2.250   0.7129   0.01310   0.00603  -0.1076  0.7913  1.0000  -0.7871   0.0000   0.0000   0.0000   0.3987
   2.500   0.7413   0.01316   0.00607  -0.1071  0.7768  1.0000  -0.8139   0.0000   0.0000   0.0000   0.3921
   2.750   0.7694   0.01326   0.00615  -0.1066  0.7622  1.0000  -0.8456   0.0000   0.0000   0.0000   0.3859
   3.000   0.7971   0.01339   0.00628  -0.1060  0.7476  1.0000  -0.9627   0.0000   0.0000   0.0000   0.3802
   3.250   0.8244   0.01357   0.00648  -0.1054  0.7331  1.0000  -1.0947   0.0000   0.0000   0.0000   0.3748
   3.500   0.8515   0.01377   0.00670  -0.1048  0.7186  1.0000  -1.2448   0.0000   0.0000   0.0000   0.3698
   3.750   0.8784   0.01400   0.00697  -0.1042  0.7043  1.0000  -1.4047   0.0000   0.0000   0.0000   0.3651
   4.000   0.9051   0.01426   0.00729  -0.1035  0.6900  1.0000  -1.5841   0.0000   0.0000   0.0000   0.3606
   4.250   0.9315   0.01453   0.00763  -0.1028  0.6757  1.0000  -1.7877   0.0000   0.0000   0.0000   0.3564
   4.500   0.9579   0.01481   0.00799  -0.1020  0.6610  1.0000  -2.0043   0.0000   0.0000   0.0000   0.3523
   4.750   0.9815   0.01487   0.00807  -0.1002  0.6362  1.0000  -2.2213   0.0000   0.0000   0.0000   0.3477
   5.000   1.0026   0.01472   0.00783  -0.0975  0.5978  1.0000  -2.4397   0.0000   0.0000   0.0000   0.3425
   5.250   1.0233   0.01480   0.00791  -0.0952  0.5615  1.0000  -2.6746   0.0000   0.0000   0.0000   0.3380
   5.500   1.0436   0.01499   0.00809  -0.0930  0.5227  1.0000  -2.9204   0.0000   0.0000   0.0000   0.3338
   5.750   1.0605   0.01530   0.00832  -0.0901  0.4647  1.0000  -3.1451   0.0000   0.0000   0.0000   0.3294
   6.000   1.0599   0.01687   0.00885  -0.0847  0.2577  1.0000  -3.2543   0.0000   0.0000   0.0000   0.3240
   6.250   1.0532   0.02041   0.01105  -0.0798  0.0949  1.0000  -3.2876   0.0000   0.0000   0.0000   0.3196
   6.500   1.0631   0.02220   0.01273  -0.0768  0.0740  1.0000  -3.4052   0.0000   0.0000   0.0000   0.3158
   6.750   1.0731   0.02392   0.01438  -0.0738  0.0649  1.0000  -3.5276   0.0000   0.0000   0.0000   0.3121
   7.000   1.0860   0.02565   0.01605  -0.0713  0.0576  1.0000  -3.6612   0.0000   0.0000   0.0000   0.3087
   7.250   1.1038   0.02757   0.01788  -0.0695  0.0520  1.0000  -3.8150   0.0000   0.0000   0.0000   0.3057
   7.500   1.1284   0.02950   0.01995  -0.0684  0.0479  1.0000  -4.0077   0.0000   0.0000   0.0000   0.3030
   7.750   1.1542   0.03171   0.02228  -0.0676  0.0436  1.0000  -4.2144   0.0000   0.0000   0.0000   0.3007
   8.000   1.1852   0.03451   0.02510  -0.0676  0.0413  1.0000  -4.4299   0.0000   0.0000   0.0000   0.2989
   8.250   1.2142   0.03796   0.02881  -0.0672  0.0406  1.0000  -4.5743   0.0000   0.0000   0.0000   0.2969
   8.500   1.2339   0.04112   0.03249  -0.0653  0.0402  1.0000  -4.6503   0.0000   0.0000   0.0000   0.2942
   8.750   1.2459   0.04422   0.03618  -0.0626  0.0392  1.0000  -4.6907   0.0000   0.0000   0.0000   0.2912
   9.000   1.2556   0.04776   0.04021  -0.0599  0.0390  1.0000  -4.7190   0.0000   0.0000   0.0000   0.2884
   9.250   1.2653   0.05197   0.04479  -0.0577  0.0400  1.0000  -4.7411   0.0000   0.0000   0.0000   0.2860
   9.500   1.2613   0.05657   0.05010  -0.0535  0.0435  1.0000  -4.5810   0.0000   0.0000   0.0000   0.2826
  14.250   0.7835   0.16627   0.16247  -0.0770  0.0978  1.0000  -1.6630   0.0000   0.0000   0.0000   0.3366
  14.500   1.0035   0.18787   0.18363  -0.0983  0.0796  1.0000  -2.2324   0.0000   0.0000   0.0000   0.3341
  14.750   0.7831   0.17316   0.16938  -0.0800  0.0892  1.0000  -1.6210   0.0000   0.0000   0.0000   0.3400
  15.000   1.0081   0.19736   0.19309  -0.1040  0.0739  1.0000  -2.1856   0.0000   0.0000   0.0000   0.3387
  15.500   1.0177   0.20617   0.20187  -0.1085  0.0692  1.0000  -2.1848   0.0000   0.0000   0.0000   0.3415
  16.000   1.0370   0.21462   0.21037  -0.1101  0.0642  1.0000  -2.3086   0.0000   0.0000   0.0000   0.3402
  16.500   1.0533   0.22304   0.21879  -0.1128  0.0581  1.0000  -2.3966   0.0000   0.0000   0.0000   0.3404
  17.000   1.0527   0.23088   0.22656  -0.1226  0.0539  1.0000  -2.1837   0.0000   0.0000   0.0000   0.3491
  17.500   1.0663   0.23908   0.23475  -0.1272  0.0507  1.0000  -2.1784   0.0000   0.0000   0.0000   0.3512
  18.000   1.0831   0.24675   0.24244  -0.1306  0.0468  1.0000  -2.2407   0.0000   0.0000   0.0000   0.3516
  18.500   1.0942   0.25479   0.25046  -0.1371  0.0445  1.0000  -2.1366   0.0000   0.0000   0.0000   0.3556
  19.000   1.1117   0.26229   0.25800  -0.1403  0.0412  1.0000  -2.2053   0.0000   0.0000   0.0000   0.3556
  19.500   1.1243   0.27003   0.26571  -0.1466  0.0395  1.0000  -2.0993   0.0000   0.0000   0.0000   0.3590
  20.000   1.1404   0.27729   0.27299  -0.1510  0.0366  1.0000  -2.1061   0.0000   0.0000   0.0000   0.3601


