xflr5 v6.61

 Calculated polar for: NACA4412_8_00

 1 1 Reynolds number fixed          Mach number fixed         

 xtrf =   1.000 (top)        1.000 (bottom)
 Mach =   0.200     Re =     0.080 e 6     Ncrit =   7.000

  alpha     CL        CD       CDp       Cm    Top Xtr Bot Xtr   Cpmin    Chinge    XCp    
 ------- -------- --------- --------- -------- ------- ------- -------- --------- ---------
 -23.500  -0.7580   0.28805   0.28161   0.0546  1.0000  0.0231  -1.5852   0.0000   0.0000   0.0000   0.3058
 -23.000  -0.7409   0.28214   0.27568   0.0503  1.0000  0.0243  -1.5485   0.0000   0.0000   0.0000   0.3023
 -22.500  -0.7235   0.27629   0.26982   0.0459  1.0000  0.0255  -1.5305   0.0000   0.0000   0.0000   0.2985
 -22.000  -0.7062   0.27083   0.26435   0.0413  1.0000  0.0262  -1.5336   0.0000   0.0000   0.0000   0.2941
 -21.500  -0.6891   0.26520   0.25874   0.0368  1.0000  0.0265  -1.5541   0.0000   0.0000   0.0000   0.2895
 -21.000  -0.6714   0.25811   0.25163   0.0334  1.0000  0.0275  -1.5035   0.0000   0.0000   0.0000   0.2864
 -20.500  -0.6538   0.25199   0.24550   0.0295  1.0000  0.0288  -1.4940   0.0000   0.0000   0.0000   0.2822
 -20.000  -0.6363   0.24601   0.23952   0.0254  1.0000  0.0301  -1.5047   0.0000   0.0000   0.0000   0.2775
 -19.500  -0.6196   0.24080   0.23431   0.0209  1.0000  0.0308  -1.5498   0.0000   0.0000   0.0000   0.2717
 -19.000  -0.6018   0.23358   0.22711   0.0177  1.0000  0.0316  -1.5060   0.0000   0.0000   0.0000   0.2678
 -18.500  -0.5843   0.22727   0.22079   0.0143  1.0000  0.0336  -1.4691   0.0000   0.0000   0.0000   0.2633
 -18.000  -0.5679   0.22165   0.21518   0.0102  1.0000  0.0353  -1.4869   0.0000   0.0000   0.0000   0.2572
 -17.500  -0.5514   0.21519   0.20875   0.0067  1.0000  0.0361  -1.4756   0.0000   0.0000   0.0000   0.2517
 -17.000  -0.5339   0.20849   0.20205   0.0039  1.0000  0.0379  -1.4181   0.0000   0.0000   0.0000   0.2471
 -16.500  -0.5179   0.20241   0.19598   0.0004  1.0000  0.0399  -1.4057   0.0000   0.0000   0.0000   0.2410
 -16.000  -0.5052   0.19764   0.19124  -0.0039  1.0000  0.0408  -1.4961   0.0000   0.0000   0.0000   0.2328
 -15.500  -0.4864   0.18952   0.18314  -0.0056  1.0000  0.0425  -1.4334   0.0000   0.0000   0.0000   0.2292
 -15.000  -0.4714   0.18333   0.17697  -0.0086  1.0000  0.0449  -1.4460   0.0000   0.0000   0.0000   0.2228
 -14.500  -0.4611   0.17851   0.17217  -0.0126  1.0000  0.0462  -1.5345   0.0000   0.0000   0.0000   0.2139
 -14.000  -0.4427   0.17052   0.16421  -0.0139  1.0000  0.0488  -1.4611   0.0000   0.0000   0.0000   0.2101
 -13.500  -0.4329   0.16532   0.15905  -0.0174  1.0000  0.0518  -1.5211   0.0000   0.0000   0.0000   0.2016
 -13.000  -0.4171   0.15794   0.15170  -0.0189  1.0000  0.0540  -1.4765   0.0000   0.0000   0.0000   0.1967
 -12.500  -0.4061   0.15201   0.14580  -0.0214  1.0000  0.0572  -1.4933   0.0000   0.0000   0.0000   0.1894
 -12.000  -0.3965   0.14579   0.13965  -0.0239  1.0000  0.0588  -1.5199   0.0000   0.0000   0.0000   0.1821
 -11.500  -0.3830   0.13919   0.13307  -0.0252  1.0000  0.0622  -1.4781   0.0000   0.0000   0.0000   0.1767
 -11.000  -0.3825   0.13475   0.12872  -0.0290  1.0000  0.0644  -1.5754   0.0000   0.0000   0.0000   0.1672
 -10.500  -0.3639   0.12687   0.12088  -0.0287  1.0000  0.0680  -1.4722   0.0000   0.0000   0.0000   0.1641
 -10.000  -0.3656   0.12243   0.11654  -0.0322  1.0000  0.0710  -1.5855   0.0000   0.0000   0.0000   0.1556
  -9.500  -0.3505   0.11537   0.10954  -0.0317  1.0000  0.0766  -1.5321   0.0000   0.0000   0.0000   0.1531
  -9.000  -0.3451   0.10954   0.10382  -0.0325  1.0000  0.0804  -1.5534   0.0000   0.0000   0.0000   0.1498
  -8.500  -0.3496   0.10513   0.09957  -0.0340  1.0000  0.0850  -1.6264   0.0000   0.0000   0.0000   0.1473
  -8.000  -0.3424   0.09901   0.09355  -0.0326  1.0000  0.0885  -1.5975   0.0000   0.0000   0.0000   0.1496
  -7.500  -0.3608   0.09570   0.09047  -0.0318  1.0000  0.0925  -1.6860   0.0000   0.0000   0.0000   0.1577
  -7.000  -0.3665   0.09073   0.08567  -0.0283  1.0000  0.0953  -1.6741   0.0000   0.0000   0.0000   0.1691
  -6.500  -0.3817   0.08670   0.08182  -0.0288  1.0000  0.1002  -1.7484   0.0000   0.0000   0.0000   0.1715
  -6.000  -0.3833   0.08135   0.07657  -0.0266  1.0000  0.1038  -1.7293   0.0000   0.0000   0.0000   0.1777
  -5.500  -0.3834   0.07584   0.07113  -0.0288  1.0000  0.1107  -1.7621   0.0000   0.0000   0.0000   0.1725
  -5.000  -0.3744   0.07023   0.06555  -0.0297  1.0000  0.1207  -1.7305   0.0000   0.0000   0.0000   0.1684
  -4.500  -0.3551   0.06404   0.05929  -0.0333  1.0000  0.1323  -1.7023   0.0000   0.0000   0.0000   0.1543
  -4.000  -0.2737   0.05102   0.04565  -0.0516  0.9921  0.1034  -1.8716   0.0000   0.0000   0.0000   0.0588
  -3.500  -0.1698   0.03458   0.02747  -0.0684  0.9831  0.0665  -2.2774   0.0000   0.0000   0.0000  -0.1579
  -3.000  -0.0815   0.02804   0.01946  -0.0759  0.9727  0.0725  -2.1484   0.0000   0.0000   0.0000  -0.6922
  -2.500  -0.0008   0.02464   0.01520  -0.0807  0.9589  0.0865  -1.9131   0.0000   0.0000   0.0000  -104.7528
  -2.000   0.0813   0.02250   0.01281  -0.0855  0.9455  0.1137  -1.5917   0.0000   0.0000   0.0000   1.3092
  -1.500   0.1546   0.02101   0.01140  -0.0887  0.9280  0.1673  -1.3008   0.0000   0.0000   0.0000   0.8264
  -1.000   0.2334   0.01961   0.01048  -0.0929  0.9127  0.3084  -0.9856   0.0000   0.0000   0.0000   0.6492
  -0.500   0.3096   0.01739   0.00984  -0.0957  0.8957  1.0000  -0.6951   0.0000   0.0000   0.0000   0.5593
   0.000   0.3909   0.01732   0.00924  -0.0998  0.8785  1.0000  -0.5810   0.0000   0.0000   0.0000   0.5049
   0.500   0.4579   0.01733   0.00895  -0.1012  0.8558  1.0000  -0.6265   0.0000   0.0000   0.0000   0.4700
   1.000   0.5236   0.01731   0.00873  -0.1021  0.8330  1.0000  -0.6738   0.0000   0.0000   0.0000   0.4437
   1.500   0.5892   0.01725   0.00853  -0.1029  0.8105  1.0000  -0.7242   0.0000   0.0000   0.0000   0.4228
   2.000   0.6537   0.01721   0.00841  -0.1033  0.7875  1.0000  -0.7773   0.0000   0.0000   0.0000   0.4058
   2.500   0.7114   0.01741   0.00859  -0.1027  0.7616  1.0000  -0.8301   0.0000   0.0000   0.0000   0.3917
   3.000   0.7680   0.01771   0.00891  -0.1019  0.7359  1.0000  -0.8879   0.0000   0.0000   0.0000   0.3797
   3.500   0.8241   0.01809   0.00937  -0.1011  0.7107  1.0000  -1.0397   0.0000   0.0000   0.0000   0.3691
   4.000   0.8812   0.01850   0.00985  -0.1003  0.6868  1.0000  -1.2943   0.0000   0.0000   0.0000   0.3598
   4.500   0.9340   0.01911   0.01065  -0.0989  0.6609  1.0000  -1.5825   0.0000   0.0000   0.0000   0.3514
   5.500   1.0379   0.02024   0.01224  -0.0951  0.6023  1.0000  -2.2995   0.0000   0.0000   0.0000   0.3361
   6.000   1.0788   0.01999   0.01203  -0.0898  0.5370  1.0000  -2.7059   0.0000   0.0000   0.0000   0.3271
   6.500   1.1139   0.02033   0.01244  -0.0843  0.4627  1.0000  -3.0961   0.0000   0.0000   0.0000   0.3189
   7.000   1.1294   0.02178   0.01335  -0.0763  0.2907  1.0000  -3.4198   0.0000   0.0000   0.0000   0.3101
   7.500   1.1186   0.02721   0.01719  -0.0673  0.1090  1.0000  -3.5555   0.0000   0.0000   0.0000   0.3021
   8.000   1.1264   0.03092   0.02080  -0.0604  0.0805  1.0000  -3.7659   0.0000   0.0000   0.0000   0.2950
   8.500   1.1434   0.03449   0.02437  -0.0549  0.0664  1.0000  -4.0124   0.0000   0.0000   0.0000   0.2887
   9.000   1.1886   0.03867   0.02861  -0.0526  0.0554  1.0000  -4.3390   0.0000   0.0000   0.0000   0.2844
   9.500   1.2445   0.04397   0.03414  -0.0524  0.0469  1.0000  -4.7720   0.0000   0.0000   0.0000   0.2816
  10.000   1.2766   0.05032   0.04133  -0.0492  0.0431  1.0000  -5.0005   0.0000   0.0000   0.0000   0.2774
  10.500   1.2877   0.05649   0.04806  -0.0448  0.0400  1.0000  -5.1964   0.0000   0.0000   0.0000   0.2730
  11.000   1.2709   0.06323   0.05557  -0.0384  0.0395  1.0000  -5.1805   0.0000   0.0000   0.0000   0.2679
  11.500   1.2428   0.07073   0.06371  -0.0340  0.0395  1.0000  -5.1183   0.0000   0.0000   0.0000   0.2643
  12.000   1.2078   0.07957   0.07307  -0.0326  0.0397  1.0000  -5.0155   0.0000   0.0000   0.0000   0.2633
  12.500   1.1696   0.09011   0.08405  -0.0347  0.0401  1.0000  -4.8768   0.0000   0.0000   0.0000   0.2653
  13.000   1.1322   0.10242   0.09670  -0.0400  0.0405  1.0000  -4.7090   0.0000   0.0000   0.0000   0.2702
  13.500   1.0582   0.12492   0.11962  -0.0564  0.0429  1.0000  -4.0620   0.0000   0.0000   0.0000   0.2879
  14.000   1.0234   0.14615   0.14086  -0.0697  0.0453  1.0000  -3.5559   0.0000   0.0000   0.0000   0.3026


