xflr5 v6.61

 Calculated polar for: BLD_0

 1 1 Reynolds number fixed          Mach number fixed         

 xtrf =   1.000 (top)        1.000 (bottom)
 Mach =   0.200     Re =     0.080 e 6     Ncrit =   9.000

  alpha     CL        CD       CDp       Cm    Top Xtr Bot Xtr   Cpmin    Chinge    XCp    
 ------- -------- --------- --------- -------- ------- ------- -------- --------- ---------
 -14.000  -0.4266   0.18025   0.17388  -0.0180  1.0000  0.0481  -1.3199   0.0000   0.0000   0.0000   0.1994
 -13.500  -0.4136   0.17440   0.16802  -0.0190  1.0000  0.0503  -1.2939   0.0000   0.0000   0.0000   0.1959
 -13.000  -0.4022   0.16893   0.16260  -0.0202  1.0000  0.0527  -1.2888   0.0000   0.0000   0.0000   0.1918
 -12.500  -0.3937   0.16444   0.15818  -0.0221  1.0000  0.0549  -1.3187   0.0000   0.0000   0.0000   0.1864
 -12.000  -0.3936   0.16246   0.15629  -0.0247  1.0000  0.0557  -1.4037   0.0000   0.0000   0.0000   0.1802
 -11.500  -0.3749   0.15286   0.14674  -0.0238  1.0000  0.0572  -1.3135   0.0000   0.0000   0.0000   0.1793
 -11.000  -0.3627   0.14668   0.14061  -0.0236  1.0000  0.0599  -1.2561   0.0000   0.0000   0.0000   0.1779
 -10.500  -0.3546   0.14148   0.13550  -0.0241  1.0000  0.0630  -1.2433   0.0000   0.0000   0.0000   0.1752
 -10.000  -0.3553   0.13845   0.13257  -0.0258  1.0000  0.0654  -1.3030   0.0000   0.0000   0.0000   0.1711
  -9.750  -0.3609   0.13803   0.13223  -0.0269  1.0000  0.0657  -1.3588   0.0000   0.0000   0.0000   0.1696
  -9.500  -0.3447   0.13147   0.12569  -0.0251  1.0000  0.0673  -1.2712   0.0000   0.0000   0.0000   0.1711
  -9.250  -0.3382   0.12832   0.12257  -0.0244  1.0000  0.0696  -1.2432   0.0000   0.0000   0.0000   0.1720
  -9.000  -0.3354   0.12591   0.12016  -0.0242  1.0000  0.0720  -1.2473   0.0000   0.0000   0.0000   0.1722
  -8.750  -0.3360   0.12416   0.11847  -0.0244  1.0000  0.0742  -1.2786   0.0000   0.0000   0.0000   0.1719
  -8.500  -0.3433   0.12373   0.11812  -0.0251  1.0000  0.0753  -1.3451   0.0000   0.0000   0.0000   0.1717
  -8.250  -0.3545   0.12376   0.11826  -0.0256  1.0000  0.0757  -1.4194   0.0000   0.0000   0.0000   0.1731
  -8.000  -0.3324   0.11658   0.11108  -0.0232  1.0000  0.0781  -1.3152   0.0000   0.0000   0.0000   0.1752
  -7.750  -0.3290   0.11396   0.10850  -0.0222  1.0000  0.0803  -1.3034   0.0000   0.0000   0.0000   0.1776
  -7.500  -0.3292   0.11186   0.10646  -0.0215  1.0000  0.0826  -1.3139   0.0000   0.0000   0.0000   0.1800
  -7.250  -0.3340   0.11039   0.10507  -0.0209  1.0000  0.0847  -1.3467   0.0000   0.0000   0.0000   0.1830
  -7.000  -0.3466   0.11004   0.10484  -0.0202  1.0000  0.0858  -1.4067   0.0000   0.0000   0.0000   0.1878
  -6.750  -0.3636   0.11010   0.10501  -0.0189  1.0000  0.0862  -1.4721   0.0000   0.0000   0.0000   0.1945
  -6.250  -0.3474   0.10221   0.09720  -0.0153  1.0000  0.0902  -1.3970   0.0000   0.0000   0.0000   0.2027
  -6.000  -0.3516   0.10041   0.09547  -0.0136  1.0000  0.0925  -1.4047   0.0000   0.0000   0.0000   0.2081
  -5.750  -0.3562   0.09876   0.09391  -0.0137  1.0000  0.0952  -1.4368   0.0000   0.0000   0.0000   0.2084
  -5.500  -0.3612   0.09782   0.09306  -0.0195  1.0000  0.0969  -1.5401   0.0000   0.0000   0.0000   0.1932
  -5.250  -0.3573   0.09396   0.08927  -0.0159  1.0000  0.0984  -1.4987   0.0000   0.0000   0.0000   0.2028
  -5.000  -0.3529   0.09116   0.08651  -0.0137  1.0000  0.1011  -1.4638   0.0000   0.0000   0.0000   0.2087
  -4.750  -0.3485   0.08871   0.08410  -0.0153  1.0000  0.1051  -1.4766   0.0000   0.0000   0.0000   0.2037
  -4.500  -0.3365   0.08562   0.08106  -0.0233  1.0000  0.1084  -1.5499   0.0000   0.0000   0.0000   0.1782
  -4.250  -0.3338   0.08277   0.07826  -0.0190  1.0000  0.1110  -1.4945   0.0000   0.0000   0.0000   0.1906
  -4.000  -0.3036   0.07912   0.07457  -0.0329  1.0000  0.1189  -1.5728   0.0000   0.0000   0.0000   0.1391
  -3.750  -0.3044   0.07626   0.07179  -0.0269  1.0000  0.1207  -1.5084   0.0000   0.0000   0.0000   0.1592
  -3.500  -0.2705   0.07230   0.06776  -0.0379  1.0000  0.1300  -1.5371   0.0000   0.0000   0.0000   0.1073
  -3.250  -0.2675   0.06972   0.06521  -0.0335  1.0000  0.1328  -1.4760   0.0000   0.0000   0.0000   0.1223
  -3.000  -0.2363   0.06586   0.06130  -0.0409  1.0000  0.1423  -1.4674   0.0000   0.0000   0.0000   0.0742
  -2.750  -0.1907   0.06214   0.05743  -0.0521  1.0000  0.1620  -1.4477   0.0000   0.0000   0.0000  -0.0264
  -2.500  -0.1872   0.05987   0.05528  -0.0475  1.0000  0.1686  -1.3783   0.0000   0.0000   0.0000  -0.0068
  -2.250  -0.1505   0.05637   0.05171  -0.0542  1.0000  0.1870  -1.3361   0.0000   0.0000   0.0000  -0.1141
  -2.000   0.0232   0.04063   0.03455  -0.0958  1.0000  0.1083  -1.6289   0.0000   0.0000   0.0000   4.3973
  -1.750   0.1093   0.03322   0.02608  -0.1092  1.0000  0.0836  -1.7393   0.0000   0.0000   0.0000   1.2548
  -1.500   0.1660   0.03000   0.02205  -0.1154  1.0000  0.0826  -1.7550   0.0000   0.0000   0.0000   0.9483
  -1.250   0.2122   0.02801   0.01936  -0.1189  1.0000  0.0879  -1.7381   0.0000   0.0000   0.0000   0.8125
  -1.000   0.2474   0.02702   0.01821  -0.1205  1.0000  0.1036  -1.6741   0.0000   0.0000   0.0000   0.7383
  -0.750   0.2796   0.02655   0.01765  -0.1217  1.0000  0.1315  -1.5726   0.0000   0.0000   0.0000   0.6859
  -0.500   0.3060   0.02674   0.01791  -0.1223  1.0000  0.1737  -1.4204   0.0000   0.0000   0.0000   0.6500
  -0.250   0.3359   0.02662   0.01799  -0.1233  1.0000  0.2226  -1.2689   0.0000   0.0000   0.0000   0.6172
   0.000   0.3654   0.02668   0.01829  -0.1244  1.0000  0.2972  -1.1064   0.0000   0.0000   0.0000   0.5901
   0.250   0.4131   0.02665   0.01870  -0.1284  0.9934  0.4370  -0.9211   0.0000   0.0000   0.0000   0.5602
   0.500   0.4457   0.02549   0.01893  -0.1284  0.9825  1.0000  -0.7735   0.0000   0.0000   0.0000   0.5371
   0.750   0.4990   0.02617   0.01906  -0.1337  0.9705  1.0000  -0.6081   0.0000   0.0000   0.0000   0.5165
   1.000   0.5439   0.02655   0.01917  -0.1372  0.9556  1.0000  -0.6490   0.0000   0.0000   0.0000   0.5007
   1.250   0.5922   0.02684   0.01925  -0.1412  0.9427  1.0000  -0.6953   0.0000   0.0000   0.0000   0.4865
   1.500   0.6383   0.02698   0.01925  -0.1445  0.9292  1.0000  -0.7420   0.0000   0.0000   0.0000   0.4742
   1.750   0.6822   0.02698   0.01916  -0.1473  0.9141  1.0000  -0.7905   0.0000   0.0000   0.0000   0.4634
   2.000   0.7311   0.02675   0.01885  -0.1506  0.9008  1.0000  -0.8495   0.0000   0.0000   0.0000   0.4533
   2.250   0.7737   0.02646   0.01854  -0.1526  0.8848  1.0000  -0.9079   0.0000   0.0000   0.0000   0.4443
   2.500   0.8206   0.02592   0.01800  -0.1551  0.8704  1.0000  -0.9737   0.0000   0.0000   0.0000   0.4358
   2.750   0.8709   0.02509   0.01722  -0.1578  0.8575  1.0000  -1.0452   0.0000   0.0000   0.0000   0.4277
   3.000   0.9117   0.02439   0.01656  -0.1588  0.8402  1.0000  -1.1137   0.0000   0.0000   0.0000   0.4204
   3.250   0.9628   0.02311   0.01536  -0.1609  0.8265  1.0000  -1.1994   0.0000   0.0000   0.0000   0.4131
   3.500   1.0096   0.02198   0.01434  -0.1624  0.8081  1.0000  -1.2862   0.0000   0.0000   0.0000   0.4066
   3.750   1.0619   0.02075   0.01320  -0.1647  0.7873  1.0000  -1.3835   0.0000   0.0000   0.0000   0.4006
   4.000   1.1157   0.01965   0.01218  -0.1673  0.7605  1.0000  -1.5026   0.0000   0.0000   0.0000   0.3951
   4.250   1.1585   0.01911   0.01163  -0.1683  0.7233  1.0000  -1.6238   0.0000   0.0000   0.0000   0.3901
   4.500   1.1975   0.01894   0.01134  -0.1686  0.6797  1.0000  -1.7403   0.0000   0.0000   0.0000   0.3853
   4.750   1.2292   0.01917   0.01139  -0.1680  0.6329  1.0000  -1.8450   0.0000   0.0000   0.0000   0.3808
   5.000   1.2566   0.01966   0.01172  -0.1667  0.5863  1.0000  -1.9429   0.0000   0.0000   0.0000   0.3765
   5.250   1.2803   0.02035   0.01217  -0.1649  0.5416  1.0000  -2.0647   0.0000   0.0000   0.0000   0.3724
   5.500   1.3017   0.02117   0.01277  -0.1629  0.4992  1.0000  -2.2113   0.0000   0.0000   0.0000   0.3684
   5.750   1.3222   0.02207   0.01347  -0.1609  0.4596  1.0000  -2.3573   0.0000   0.0000   0.0000   0.3646
   6.000   1.3424   0.02303   0.01424  -0.1589  0.4233  1.0000  -2.5050   0.0000   0.0000   0.0000   0.3609
   6.250   1.3625   0.02407   0.01511  -0.1570  0.3899  1.0000  -2.6540   0.0000   0.0000   0.0000   0.3574
   6.500   1.3822   0.02515   0.01607  -0.1550  0.3590  1.0000  -2.8224   0.0000   0.0000   0.0000   0.3540
   6.750   1.4017   0.02626   0.01705  -0.1531  0.3306  1.0000  -2.9986   0.0000   0.0000   0.0000   0.3508
   7.000   1.4190   0.02732   0.01815  -0.1509  0.3033  1.0000  -3.1710   0.0000   0.0000   0.0000   0.3475
   7.250   1.4349   0.02836   0.01909  -0.1485  0.2777  1.0000  -3.3427   0.0000   0.0000   0.0000   0.3443
   7.500   1.4478   0.02931   0.02005  -0.1456  0.2529  1.0000  -3.5054   0.0000   0.0000   0.0000   0.3410
   7.750   1.4606   0.03031   0.02104  -0.1428  0.2303  1.0000  -3.6699   0.0000   0.0000   0.0000   0.3379
   8.000   1.4751   0.03145   0.02218  -0.1404  0.2107  1.0000  -3.8392   0.0000   0.0000   0.0000   0.3349
   8.250   1.4905   0.03272   0.02345  -0.1381  0.1932  1.0000  -4.0101   0.0000   0.0000   0.0000   0.3320
   8.500   1.5059   0.03416   0.02502  -0.1358  0.1763  1.0000  -4.1716   0.0000   0.0000   0.0000   0.3291
   8.750   1.5187   0.03561   0.02642  -0.1332  0.1599  1.0000  -4.3288   0.0000   0.0000   0.0000   0.3263
   9.000   1.5261   0.03709   0.02810  -0.1298  0.1429  1.0000  -4.4534   0.0000   0.0000   0.0000   0.3232
   9.250   1.5363   0.03897   0.02992  -0.1269  0.1277  1.0000  -4.5796   0.0000   0.0000   0.0000   0.3204
   9.500   1.5408   0.04089   0.03205  -0.1231  0.1128  1.0000  -4.6669   0.0000   0.0000   0.0000   0.3174
   9.750   1.5475   0.04314   0.03444  -0.1199  0.1000  1.0000  -4.7499   0.0000   0.0000   0.0000   0.3145
  10.000   1.5572   0.04583   0.03723  -0.1172  0.0892  1.0000  -4.8198   0.0000   0.0000   0.0000   0.3119
  10.250   1.5688   0.04905   0.04070  -0.1147  0.0812  1.0000  -4.8714   0.0000   0.0000   0.0000   0.3094
  10.500   1.5853   0.05247   0.04419  -0.1133  0.0756  1.0000  -4.9553   0.0000   0.0000   0.0000   0.3074
  10.750   1.5860   0.05613   0.04837  -0.1098  0.0728  1.0000  -4.9662   0.0000   0.0000   0.0000   0.3047
  11.000   1.5864   0.05946   0.05203  -0.1066  0.0701  1.0000  -5.0290   0.0000   0.0000   0.0000   0.3023
  11.250   1.5971   0.06271   0.05524  -0.1051  0.0667  1.0000  -5.1764   0.0000   0.0000   0.0000   0.3006
  11.500   1.5807   0.06641   0.05940  -0.1008  0.0657  1.0000  -5.1602   0.0000   0.0000   0.0000   0.2982
  11.750   1.5617   0.07050   0.06393  -0.0972  0.0650  1.0000  -5.1300   0.0000   0.0000   0.0000   0.2962
  12.000   1.5412   0.07504   0.06886  -0.0944  0.0644  1.0000  -5.0911   0.0000   0.0000   0.0000   0.2949
  12.250   1.5190   0.08008   0.07426  -0.0926  0.0640  1.0000  -5.0402   0.0000   0.0000   0.0000   0.2942
  12.500   1.4951   0.08571   0.08022  -0.0920  0.0639  1.0000  -4.9747   0.0000   0.0000   0.0000   0.2944
  12.750   1.4696   0.09203   0.08683  -0.0927  0.0640  1.0000  -4.8925   0.0000   0.0000   0.0000   0.2955
  13.000   1.4433   0.09910   0.09416  -0.0948  0.0644  1.0000  -4.7937   0.0000   0.0000   0.0000   0.2977
  13.250   1.4170   0.10692   0.10220  -0.0983  0.0650  1.0000  -4.6801   0.0000   0.0000   0.0000   0.3010
  13.500   1.3918   0.11540   0.11086  -0.1030  0.0656  1.0000  -4.5545   0.0000   0.0000   0.0000   0.3052
  13.750   1.3688   0.12442   0.12001  -0.1086  0.0662  1.0000  -4.4200   0.0000   0.0000   0.0000   0.3102


