xflr5 v6.61

 Calculated polar for: BLD_50

 1 1 Reynolds number fixed          Mach number fixed         

 xtrf =   1.000 (top)        1.000 (bottom)
 Mach =   0.200     Re =     0.060 e 6     Ncrit =   9.000

  alpha     CL        CD       CDp       Cm    Top Xtr Bot Xtr   Cpmin    Chinge    XCp    
 ------- -------- --------- --------- -------- ------- ------- -------- --------- ---------
 -25.500  -0.8124   0.31003   0.30247   0.0617  1.0000  0.0291  -1.6440   0.0000   0.0000   0.0000   0.3084
 -25.000  -0.7961   0.30273   0.29515   0.0579  1.0000  0.0301  -1.5886   0.0000   0.0000   0.0000   0.3059
 -24.500  -0.7797   0.29692   0.28929   0.0537  1.0000  0.0312  -1.5529   0.0000   0.0000   0.0000   0.3027
 -24.000  -0.7630   0.29136   0.28371   0.0494  1.0000  0.0324  -1.5234   0.0000   0.0000   0.0000   0.2993
 -23.500  -0.7462   0.28584   0.27818   0.0451  1.0000  0.0337  -1.4965   0.0000   0.0000   0.0000   0.2956
 -23.000  -0.7293   0.28046   0.27279   0.0408  1.0000  0.0353  -1.4729   0.0000   0.0000   0.0000   0.2917
 -22.500  -0.7123   0.27592   0.26825   0.0362  1.0000  0.0367  -1.4650   0.0000   0.0000   0.0000   0.2871
 -22.000  -0.6970   0.27385   0.26619   0.0310  1.0000  0.0373  -1.4838   0.0000   0.0000   0.0000   0.2814
 -21.500  -0.6815   0.26950   0.26185   0.0266  1.0000  0.0377  -1.5076   0.0000   0.0000   0.0000   0.2764
 -21.000  -0.6616   0.25817   0.25049   0.0245  1.0000  0.0391  -1.4256   0.0000   0.0000   0.0000   0.2748
 -20.500  -0.6442   0.25204   0.24436   0.0211  1.0000  0.0409  -1.4077   0.0000   0.0000   0.0000   0.2709
 -20.000  -0.6271   0.24636   0.23868   0.0175  1.0000  0.0428  -1.4072   0.0000   0.0000   0.0000   0.2665
 -19.500  -0.6103   0.24125   0.23358   0.0136  1.0000  0.0448  -1.4237   0.0000   0.0000   0.0000   0.2613
 -19.000  -0.5958   0.23859   0.23095   0.0090  1.0000  0.0459  -1.4775   0.0000   0.0000   0.0000   0.2546
 -18.500  -0.5833   0.23601   0.22840   0.0046  1.0000  0.0463  -1.5278   0.0000   0.0000   0.0000   0.2479
 -18.000  -0.5604   0.22350   0.21586   0.0036  1.0000  0.0483  -1.4134   0.0000   0.0000   0.0000   0.2465
 -17.500  -0.5434   0.21735   0.20973   0.0009  1.0000  0.0507  -1.3792   0.0000   0.0000   0.0000   0.2420
 -17.000  -0.5275   0.21190   0.20430  -0.0023  1.0000  0.0537  -1.3662   0.0000   0.0000   0.0000   0.2364
 -16.500  -0.5156   0.20923   0.20168  -0.0064  1.0000  0.0556  -1.4059   0.0000   0.0000   0.0000   0.2287
 -16.000  -0.4991   0.20169   0.19420  -0.0087  1.0000  0.0568  -1.3716   0.0000   0.0000   0.0000   0.2239
 -15.500  -0.4811   0.19413   0.18665  -0.0102  1.0000  0.0598  -1.2957   0.0000   0.0000   0.0000   0.2203
 -15.000  -0.4665   0.18847   0.18098  -0.0126  1.0000  0.0630  -1.2666   0.0000   0.0000   0.0000   0.2147
 -14.500  -0.4568   0.18501   0.17758  -0.0160  1.0000  0.0654  -1.3277   0.0000   0.0000   0.0000   0.2071
 -14.000  -0.4430   0.17822   0.17086  -0.0179  1.0000  0.0668  -1.3411   0.0000   0.0000   0.0000   0.2018
 -13.500  -0.4260   0.17080   0.16346  -0.0188  1.0000  0.0705  -1.3041   0.0000   0.0000   0.0000   0.1983
 -13.000  -0.4156   0.16595   0.15867  -0.0210  1.0000  0.0744  -1.3350   0.0000   0.0000   0.0000   0.1921
 -12.500  -0.4180   0.16513   0.15796  -0.0247  1.0000  0.0758  -1.4454   0.0000   0.0000   0.0000   0.1843
 -12.000  -0.3916   0.15344   0.14629  -0.0236  1.0000  0.0800  -1.3378   0.0000   0.0000   0.0000   0.1829
 -11.500  -0.3837   0.14862   0.14155  -0.0252  1.0000  0.0850  -1.3592   0.0000   0.0000   0.0000   0.1776
 -11.000  -0.3778   0.14344   0.13648  -0.0268  1.0000  0.0876  -1.3909   0.0000   0.0000   0.0000   0.1727
 -10.000  -0.2921   0.12807   0.12167  -0.0297  1.0000  0.1044  -1.1531   0.0000   0.0000   0.0000   0.1438
  -9.750  -0.2960   0.12651   0.12017  -0.0303  1.0000  0.1068  -1.1853   0.0000   0.0000   0.0000   0.1435
  -9.500  -0.3057   0.12596   0.11971  -0.0311  1.0000  0.1077  -1.2438   0.0000   0.0000   0.0000   0.1443
  -9.250  -0.2886   0.11990   0.11366  -0.0295  1.0000  0.1109  -1.1619   0.0000   0.0000   0.0000   0.1436
  -9.000  -0.2858   0.11709   0.11090  -0.0291  1.0000  0.1144  -1.1495   0.0000   0.0000   0.0000   0.1443
  -8.750  -0.2904   0.11540   0.10929  -0.0292  1.0000  0.1175  -1.1757   0.0000   0.0000   0.0000   0.1456
  -8.500  -0.3025   0.11484   0.10884  -0.0297  1.0000  0.1186  -1.2334   0.0000   0.0000   0.0000   0.1487
  -8.250  -0.2860   0.10919   0.10320  -0.0279  1.0000  0.1222  -1.1524   0.0000   0.0000   0.0000   0.1489
  -8.000  -0.2862   0.10673   0.10081  -0.0272  1.0000  0.1263  -1.1464   0.0000   0.0000   0.0000   0.1518
  -7.750  -0.2972   0.10573   0.09991  -0.0269  1.0000  0.1288  -1.1901   0.0000   0.0000   0.0000   0.1565
  -7.500  -0.3147   0.10552   0.09984  -0.0262  1.0000  0.1296  -1.2505   0.0000   0.0000   0.0000   0.1643
  -6.750  -0.3518   0.09986   0.09396  -0.0214  1.0000  0.1349  -1.3639   0.0000   0.0000   0.0000   0.1857
  -6.500  -0.3593   0.09852   0.09273  -0.0214  1.0000  0.1389  -1.3978   0.0000   0.0000   0.0000   0.1874
  -6.000  -0.3570   0.09308   0.08744  -0.0196  1.0000  0.1460  -1.4023   0.0000   0.0000   0.0000   0.1923
  -5.750  -0.3616   0.09192   0.08638  -0.0241  1.0000  0.1510  -1.4662   0.0000   0.0000   0.0000   0.1810
  -5.500  -0.3559   0.08812   0.08264  -0.0203  1.0000  0.1547  -1.4297   0.0000   0.0000   0.0000   0.1904
  -5.250  -0.3525   0.08631   0.08089  -0.0259  1.0000  0.1620  -1.4798   0.0000   0.0000   0.0000   0.1743
  -5.000  -0.3479   0.08279   0.07737  -0.0212  1.0000  0.1674  -1.4348   0.0000   0.0000   0.0000   0.1867
  -4.500  -0.3326   0.07714   0.07181  -0.0252  1.0000  0.1863  -1.4433   0.0000   0.0000   0.0000   0.1722
  -4.250  -0.3226   0.07422   0.06892  -0.0262  1.0000  0.1976  -1.4319   0.0000   0.0000   0.0000   0.1666
  -4.000  -0.3112   0.07125   0.06598  -0.0273  1.0000  0.2094  -1.4166   0.0000   0.0000   0.0000   0.1603
  -3.750  -0.2974   0.06824   0.06298  -0.0287  1.0000  0.2220  -1.3998   0.0000   0.0000   0.0000   0.1513
  -3.500  -0.2754   0.06502   0.05973  -0.0338  1.0000  0.2401  -1.3914   0.0000   0.0000   0.0000   0.1251
  -3.000  -0.2338   0.05908   0.05374  -0.0389  1.0000  0.2825  -1.3313   0.0000   0.0000   0.0000   0.0811
  -2.500  -0.0448   0.04016   0.03308  -0.0828  1.0000  0.1276  -1.6264   0.0000   0.0000   0.0000  -1.6095
  -2.250   0.0158   0.03477   0.02687  -0.0911  1.0000  0.1127  -1.6609   0.0000   0.0000   0.0000   6.0574
  -2.000  -0.0826   0.04470   0.03879  -0.0624  1.0000  0.3265  -1.1801   0.0000   0.0000   0.0000  -0.5112
  -1.750   0.1003   0.02999   0.02099  -0.0983  1.0000  0.1342  -1.6117   0.0000   0.0000   0.0000   1.2344
  -1.500   0.1373   0.02845   0.01910  -0.1004  1.0000  0.1556  -1.5614   0.0000   0.0000   0.0000   0.9843
  -1.250   0.1722   0.02724   0.01760  -0.1020  1.0000  0.1774  -1.4830   0.0000   0.0000   0.0000   0.8442
  -1.000   0.2047   0.02652   0.01666  -0.1032  1.0000  0.2060  -1.3678   0.0000   0.0000   0.0000   0.7554
  -0.750   0.2354   0.02596   0.01618  -0.1042  1.0000  0.2430  -1.2299   0.0000   0.0000   0.0000   0.6933
  -0.500   0.2667   0.02552   0.01576  -0.1051  1.0000  0.3045  -1.1181   0.0000   0.0000   0.0000   0.6445
  -0.250   0.3044   0.02466   0.01549  -0.1073  1.0000  0.4376  -0.9815   0.0000   0.0000   0.0000   0.6023
   0.000   0.3148   0.02314   0.01537  -0.1036  1.0000  1.0000  -0.9110   0.0000   0.0000   0.0000   0.5787
   0.250   0.3387   0.02399   0.01572  -0.1040  1.0000  1.0000  -0.7914   0.0000   0.0000   0.0000   0.5565
   0.500   0.3602   0.02492   0.01638  -0.1043  1.0000  1.0000  -0.6725   0.0000   0.0000   0.0000   0.5386
   0.750   0.3943   0.02598   0.01718  -0.1070  0.9939  1.0000  -0.5337   0.0000   0.0000   0.0000   0.5201
   1.000   0.4478   0.02701   0.01792  -0.1129  0.9794  1.0000  -0.5696   0.0000   0.0000   0.0000   0.5007
   1.250   0.4947   0.02781   0.01856  -0.1175  0.9631  1.0000  -0.6035   0.0000   0.0000   0.0000   0.4858
   1.500   0.5422   0.02850   0.01912  -0.1219  0.9476  1.0000  -0.6399   0.0000   0.0000   0.0000   0.4729
   1.750   0.5877   0.02905   0.01959  -0.1257  0.9316  1.0000  -0.6772   0.0000   0.0000   0.0000   0.4617
   2.000   0.6291   0.02952   0.02001  -0.1286  0.9147  1.0000  -0.7150   0.0000   0.0000   0.0000   0.4520
   2.250   0.6747   0.02983   0.02030  -0.1319  0.8993  1.0000  -0.7591   0.0000   0.0000   0.0000   0.4429
   2.500   0.7119   0.03016   0.02065  -0.1337  0.8818  1.0000  -0.7996   0.0000   0.0000   0.0000   0.4349
   2.750   0.7581   0.03019   0.02073  -0.1365  0.8671  1.0000  -0.8548   0.0000   0.0000   0.0000   0.4270
   3.000   0.7928   0.03038   0.02098  -0.1374  0.8491  1.0000  -0.9048   0.0000   0.0000   0.0000   0.4201
   3.250   0.8397   0.03003   0.02072  -0.1397  0.8348  1.0000  -0.9725   0.0000   0.0000   0.0000   0.4129
   3.500   0.8740   0.02999   0.02082  -0.1400  0.8168  1.0000  -1.0342   0.0000   0.0000   0.0000   0.4065
   3.750   0.9229   0.02922   0.02018  -0.1419  0.8029  1.0000  -1.1320   0.0000   0.0000   0.0000   0.3998
   4.000   0.9576   0.02897   0.02006  -0.1417  0.7845  1.0000  -1.2266   0.0000   0.0000   0.0000   0.3938
   4.250   1.0017   0.02814   0.01943  -0.1424  0.7682  1.0000  -1.3407   0.0000   0.0000   0.0000   0.3877
   4.500   1.0420   0.02741   0.01886  -0.1424  0.7494  1.0000  -1.5231   0.0000   0.0000   0.0000   0.3819
   4.750   1.0794   0.02679   0.01839  -0.1418  0.7282  1.0000  -1.7047   0.0000   0.0000   0.0000   0.3764
   5.000   1.1181   0.02609   0.01782  -0.1412  0.7053  1.0000  -1.8970   0.0000   0.0000   0.0000   0.3711
   5.250   1.1476   0.02589   0.01783  -0.1395  0.6781  1.0000  -2.0924   0.0000   0.0000   0.0000   0.3661
   5.500   1.1814   0.02547   0.01748  -0.1382  0.6494  1.0000  -2.3154   0.0000   0.0000   0.0000   0.3611
   5.750   1.2104   0.02535   0.01740  -0.1362  0.6176  1.0000  -2.5261   0.0000   0.0000   0.0000   0.3564
   6.000   1.2343   0.02550   0.01759  -0.1337  0.5824  1.0000  -2.7207   0.0000   0.0000   0.0000   0.3519
   6.250   1.2575   0.02566   0.01774  -0.1310  0.5438  1.0000  -2.9172   0.0000   0.0000   0.0000   0.3474
   6.500   1.2768   0.02598   0.01801  -0.1278  0.5009  1.0000  -3.1003   0.0000   0.0000   0.0000   0.3429
   6.750   1.2918   0.02638   0.01830  -0.1240  0.4526  1.0000  -3.2686   0.0000   0.0000   0.0000   0.3385
   7.000   1.3020   0.02701   0.01891  -0.1196  0.3992  1.0000  -3.4244   0.0000   0.0000   0.0000   0.3340
   7.250   1.3081   0.02803   0.01973  -0.1150  0.3408  1.0000  -3.5693   0.0000   0.0000   0.0000   0.3297
   7.500   1.3102   0.02957   0.02083  -0.1102  0.2797  1.0000  -3.6881   0.0000   0.0000   0.0000   0.3255
   7.750   1.3100   0.03161   0.02245  -0.1055  0.2222  1.0000  -3.7811   0.0000   0.0000   0.0000   0.3216
   8.000   1.3111   0.03391   0.02437  -0.1014  0.1761  1.0000  -3.8665   0.0000   0.0000   0.0000   0.3181
   8.250   1.3171   0.03643   0.02657  -0.0980  0.1423  1.0000  -3.9547   0.0000   0.0000   0.0000   0.3148
   8.500   1.3371   0.03948   0.02946  -0.0961  0.1182  1.0000  -4.0481   0.0000   0.0000   0.0000   0.3120
   8.750   1.3655   0.04282   0.03285  -0.0954  0.1036  1.0000  -4.1570   0.0000   0.0000   0.0000   0.3096
   9.000   1.3937   0.04656   0.03683  -0.0947  0.0959  1.0000  -4.2556   0.0000   0.0000   0.0000   0.3074
   9.250   1.4174   0.05015   0.04046  -0.0940  0.0891  1.0000  -4.4203   0.0000   0.0000   0.0000   0.3054
   9.500   1.4214   0.05327   0.04421  -0.0905  0.0847  1.0000  -4.4823   0.0000   0.0000   0.0000   0.3025
   9.750   1.4390   0.05684   0.04782  -0.0894  0.0799  1.0000  -4.6519   0.0000   0.0000   0.0000   0.3006
  10.000   1.4422   0.06107   0.05251  -0.0864  0.0789  1.0000  -4.6929   0.0000   0.0000   0.0000   0.2981
  10.250   1.4368   0.06511   0.05706  -0.0827  0.0785  1.0000  -4.6954   0.0000   0.0000   0.0000   0.2955
  10.500   1.4272   0.06921   0.06159  -0.0791  0.0784  1.0000  -4.6848   0.0000   0.0000   0.0000   0.2930
  10.750   1.4132   0.07318   0.06592  -0.0753  0.0784  1.0000  -4.6623   0.0000   0.0000   0.0000   0.2906
  11.000   1.3957   0.07717   0.07031  -0.0718  0.0786  1.0000  -4.6289   0.0000   0.0000   0.0000   0.2885
  11.250   1.3767   0.08141   0.07481  -0.0689  0.0788  1.0000  -4.5890   0.0000   0.0000   0.0000   0.2868
  11.500   1.3577   0.08602   0.07965  -0.0670  0.0791  1.0000  -4.5454   0.0000   0.0000   0.0000   0.2858
  11.750   1.3399   0.09105   0.08486  -0.0660  0.0794  1.0000  -4.5020   0.0000   0.0000   0.0000   0.2854
  12.000   1.2672   0.09893   0.09318  -0.0695  0.0822  1.0000  -4.1423   0.0000   0.0000   0.0000   0.2907
  12.250   1.2215   0.10924   0.10371  -0.0762  0.0846  1.0000  -3.8761   0.0000   0.0000   0.0000   0.2980
  12.500   1.1896   0.11985   0.11439  -0.0833  0.0868  1.0000  -3.6548   0.0000   0.0000   0.0000   0.3054
  12.750   1.1710   0.12928   0.12383  -0.0889  0.0884  1.0000  -3.4992   0.0000   0.0000   0.0000   0.3112
  13.000   1.1597   0.13807   0.13264  -0.0937  0.0900  1.0000  -3.3716   0.0000   0.0000   0.0000   0.3159
  13.500   0.8944   0.16020   0.15479  -0.0909  0.1290  1.0000  -2.0164   0.0000   0.0000   0.0000   0.3384
  14.000   0.8413   0.17828   0.17275  -0.1032  0.2134  1.0000  -1.5061   0.0000   0.0000   0.0000   0.3599
  14.500   1.0919   0.20283   0.19708  -0.1411  0.1898  1.0000  -1.9585   0.0000   0.0000   0.0000   0.3641
  14.750   1.1127   0.20876   0.20306  -0.1400  0.1836  1.0000  -2.0508   0.0000   0.0000   0.0000   0.3604
  15.000   1.1031   0.21076   0.20501  -0.1448  0.1787  1.0000  -1.9742   0.0000   0.0000   0.0000   0.3654
  15.500   0.8347   0.19648   0.19114  -0.1077  0.1876  1.0000  -1.3706   0.0000   0.0000   0.0000   0.3647
  16.000   0.8516   0.20464   0.19935  -0.1075  0.1731  1.0000  -1.4489   0.0000   0.0000   0.0000   0.3613
  16.500   0.8443   0.20907   0.20381  -0.1098  0.1637  1.0000  -1.4045   0.0000   0.0000   0.0000   0.3645
  17.000   0.8396   0.21447   0.20922  -0.1123  0.1562  1.0000  -1.3597   0.0000   0.0000   0.0000   0.3676
  17.500   0.8430   0.22100   0.21578  -0.1140  0.1495  1.0000  -1.3511   0.0000   0.0000   0.0000   0.3684
  18.000   0.8571   0.22951   0.22434  -0.1144  0.1413  1.0000  -1.3955   0.0000   0.0000   0.0000   0.3660
  18.500   0.8491   0.23342   0.22827  -0.1176  0.1338  1.0000  -1.3189   0.0000   0.0000   0.0000   0.3704
  19.000   0.8510   0.23974   0.23462  -0.1197  0.1270  1.0000  -1.2870   0.0000   0.0000   0.0000   0.3718
  19.500   0.8570   0.24657   0.24148  -0.1212  0.1190  1.0000  -1.3068   0.0000   0.0000   0.0000   0.3718
  20.000   0.8646   0.25362   0.24860  -0.1225  0.1109  1.0000  -1.3493   0.0000   0.0000   0.0000   0.3713


