xflr5 v6.61

 Calculated polar for: BLD_75

 1 1 Reynolds number fixed          Mach number fixed         

 xtrf =   1.000 (top)        1.000 (bottom)
 Mach =   0.200     Re =     0.025 e 6     Ncrit =   9.000

  alpha     CL        CD       CDp       Cm    Top Xtr Bot Xtr   Cpmin    Chinge    XCp    
 ------- -------- --------- --------- -------- ------- ------- -------- --------- ---------
 -25.000  -0.8414   0.31063   0.29937   0.0711  1.0000  0.0782  -1.5772   0.0000   0.0000   0.0000   0.3181
 -24.500  -0.8243   0.30437   0.29307   0.0668  1.0000  0.0815  -1.5443   0.0000   0.0000   0.0000   0.3153
 -24.000  -0.8081   0.30009   0.28877   0.0620  1.0000  0.0847  -1.5280   0.0000   0.0000   0.0000   0.3117
 -23.500  -0.7937   0.29923   0.28791   0.0566  1.0000  0.0863  -1.5329   0.0000   0.0000   0.0000   0.3070
 -23.000  -0.7742   0.28882   0.27750   0.0532  1.0000  0.0891  -1.4742   0.0000   0.0000   0.0000   0.3048
 -22.500  -0.7566   0.28278   0.27143   0.0491  1.0000  0.0933  -1.4340   0.0000   0.0000   0.0000   0.3016
 -22.000  -0.7417   0.28054   0.26916   0.0441  1.0000  0.0966  -1.4418   0.0000   0.0000   0.0000   0.2969
 -21.500  -0.7228   0.27222   0.26085   0.0405  1.0000  0.0998  -1.4274   0.0000   0.0000   0.0000   0.2939
 -21.000  -0.7054   0.26665   0.25527   0.0366  1.0000  0.1053  -1.4238   0.0000   0.0000   0.0000   0.2902
 -20.500  -0.6929   0.26631   0.25499   0.0316  1.0000  0.1079  -1.4630   0.0000   0.0000   0.0000   0.2845
 -20.000  -0.6704   0.25474   0.24339   0.0290  1.0000  0.1136  -1.4191   0.0000   0.0000   0.0000   0.2824
 -19.500  -0.6562   0.25204   0.24071   0.0246  1.0000  0.1181  -1.4387   0.0000   0.0000   0.0000   0.2772
 -19.000  -0.6364   0.24354   0.23218   0.0215  1.0000  0.1224  -1.4156   0.0000   0.0000   0.0000   0.2738
 -18.500  -0.6209   0.23930   0.22796   0.0177  1.0000  0.1283  -1.4177   0.0000   0.0000   0.0000   0.2690
 -18.000  -0.6027   0.23216   0.22086   0.0146  1.0000  0.1328  -1.4002   0.0000   0.0000   0.0000   0.2650
 -17.500  -0.5879   0.22796   0.21669   0.0111  1.0000  0.1394  -1.3976   0.0000   0.0000   0.0000   0.2600
 -17.000  -0.5688   0.22021   0.20897   0.0083  1.0000  0.1457  -1.3670   0.0000   0.0000   0.0000   0.2561
 -16.500  -0.5577   0.21741   0.20625   0.0047  1.0000  0.1518  -1.3753   0.0000   0.0000   0.0000   0.2503
 -16.000  -0.5397   0.21034   0.19920   0.0023  1.0000  0.1612  -1.3407   0.0000   0.0000   0.0000   0.2463
 -15.500  -0.5214   0.20289   0.19172  -0.0001  1.0000  0.1697  -1.3029   0.0000   0.0000   0.0000   0.2421
 -15.000  -0.5060   0.19681   0.18570  -0.0025  1.0000  0.1777  -1.2760   0.0000   0.0000   0.0000   0.2375
 -14.500  -0.4937   0.19189   0.18087  -0.0051  1.0000  0.1859  -1.2665   0.0000   0.0000   0.0000   0.2325
 -14.000  -0.4851   0.18834   0.17739  -0.0075  1.0000  0.1952  -1.2905   0.0000   0.0000   0.0000   0.2276
 -13.500  -0.4704   0.18173   0.17085  -0.0093  1.0000  0.2060  -1.2927   0.0000   0.0000   0.0000   0.2235
 -13.000  -0.4581   0.17586   0.16506  -0.0110  1.0000  0.2171  -1.3000   0.0000   0.0000   0.0000   0.2194
 -12.500  -0.4388   0.16739   0.15666  -0.0122  1.0000  0.2303  -1.2844   0.0000   0.0000   0.0000   0.2158
 -12.000  -0.4253   0.16103   0.15038  -0.0132  1.0000  0.2468  -1.2799   0.0000   0.0000   0.0000   0.2126
 -11.500  -0.4145   0.15508   0.14445  -0.0141  1.0000  0.2635  -1.2802   0.0000   0.0000   0.0000   0.2098
 -11.000  -0.4094   0.15063   0.14012  -0.0147  1.0000  0.2826  -1.2891   0.0000   0.0000   0.0000   0.2082
 -10.500  -0.3978   0.14417   0.13377  -0.0148  1.0000  0.3044  -1.2775   0.0000   0.0000   0.0000   0.2070
 -10.000  -0.3891   0.13830   0.12803  -0.0146  1.0000  0.3266  -1.2696   0.0000   0.0000   0.0000   0.2068
  -9.500  -0.3696   0.13011   0.11993  -0.0140  1.0000  0.3547  -1.2328   0.0000   0.0000   0.0000   0.2064
  -9.000  -0.3602   0.12402   0.11398  -0.0129  1.0000  0.3848  -1.2136   0.0000   0.0000   0.0000   0.2086
  -8.500  -0.3503   0.11793   0.10804  -0.0110  1.0000  0.4231  -1.1865   0.0000   0.0000   0.0000   0.2131
  -8.000  -0.3432   0.11225   0.10251  -0.0081  1.0000  0.4689  -1.1615   0.0000   0.0000   0.0000   0.2209
  -7.500  -0.3251   0.10486   0.09516  -0.0046  1.0000  0.5345  -1.1482   0.0000   0.0000   0.0000   0.2305
  -7.000  -0.0781   0.06988   0.05933  -0.0323  1.0000  1.0000  -0.9251   0.0000   0.0000   0.0000  -0.1889
  -6.500  -0.0607   0.06513   0.05468  -0.0335  1.0000  1.0000  -0.9219   0.0000   0.0000   0.0000  -0.3327
  -6.000  -0.0439   0.06063   0.05023  -0.0345  1.0000  1.0000  -0.9178   0.0000   0.0000   0.0000  -0.5755
  -5.500  -0.0280   0.05639   0.04611  -0.0353  1.0000  1.0000  -0.9109   0.0000   0.0000   0.0000  -1.0679
  -5.000  -0.0630   0.05648   0.04655  -0.0236  1.0000  0.9694  -0.9430   0.0000   0.0000   0.0000  -0.1465
  -4.500  -0.1515   0.06030   0.05100  -0.0025  1.0000  0.8777  -1.0246   0.0000   0.0000   0.0000   0.2260
  -4.000  -0.2329   0.06270   0.05410   0.0123  1.0000  0.7878  -1.1102   0.0000   0.0000   0.0000   0.2990
  -3.500  -0.3096   0.06377   0.05577   0.0236  1.0000  0.7114  -1.2004   0.0000   0.0000   0.0000   0.3240
  -2.500  -0.1219   0.04764   0.03781  -0.0612  1.0000  0.2796  -1.4592   0.0000   0.0000   0.0000  -0.2562
  -2.000  -0.0356   0.04101   0.03019  -0.0721  1.0000  0.2912  -1.4426   0.0000   0.0000   0.0000  -1.7890
  -1.500   0.0456   0.03624   0.02435  -0.0789  1.0000  0.3359  -1.3477   0.0000   0.0000   0.0000   1.9899
  -1.000   0.1171   0.03268   0.02022  -0.0819  1.0000  0.4284  -1.1928   0.0000   0.0000   0.0000   0.9520
  -0.500   0.1696   0.02832   0.01727  -0.0786  1.0000  0.7074  -1.0765   0.0000   0.0000   0.0000   0.7144
   0.000   0.2242   0.02835   0.01541  -0.0809  1.0000  1.0000  -0.9257   0.0000   0.0000   0.0000   0.6105
   0.500   0.2693   0.02979   0.01595  -0.0811  1.0000  1.0000  -0.6893   0.0000   0.0000   0.0000   0.5505
   1.000   0.3111   0.03150   0.01705  -0.0814  1.0000  1.0000  -0.4975   0.0000   0.0000   0.0000   0.5104
   1.500   0.3503   0.03351   0.01867  -0.0818  1.0000  1.0000  -0.5220   0.0000   0.0000   0.0000   0.4816
   2.000   0.3873   0.03583   0.02072  -0.0823  1.0000  1.0000  -0.5464   0.0000   0.0000   0.0000   0.4602
   2.500   0.4224   0.03844   0.02319  -0.0830  1.0000  1.0000  -0.5712   0.0000   0.0000   0.0000   0.4437
   3.000   0.4556   0.04135   0.02602  -0.0838  1.0000  1.0000  -0.5968   0.0000   0.0000   0.0000   0.4306
   3.500   0.4872   0.04455   0.02922  -0.0846  1.0000  1.0000  -0.6243   0.0000   0.0000   0.0000   0.4200
   4.000   0.5173   0.04804   0.03277  -0.0857  1.0000  1.0000  -0.6542   0.0000   0.0000   0.0000   0.4114
   4.500   0.5458   0.05184   0.03672  -0.0868  1.0000  1.0000  -0.6891   0.0000   0.0000   0.0000   0.4044
   5.000   0.5727   0.05596   0.04102  -0.0881  1.0000  1.0000  -0.7292   0.0000   0.0000   0.0000   0.3986
   5.500   0.5980   0.06044   0.04572  -0.0895  1.0000  1.0000  -0.7772   0.0000   0.0000   0.0000   0.3940
   6.000   0.6849   0.06791   0.05376  -0.1030  0.9491  1.0000  -0.9356   0.0000   0.0000   0.0000   0.3943
   6.500   0.7392   0.07402   0.06040  -0.1093  0.9014  1.0000  -1.1231   0.0000   0.0000   0.0000   0.3913
   7.000   0.8006   0.08045   0.06750  -0.1153  0.8432  1.0000  -1.3653   0.0000   0.0000   0.0000   0.3871
   7.500   0.8532   0.08656   0.07426  -0.1185  0.7777  1.0000  -1.6149   0.0000   0.0000   0.0000   0.3815
   8.000   0.9141   0.09212   0.08072  -0.1195  0.6917  1.0000  -1.9232   0.0000   0.0000   0.0000   0.3730
   8.500   1.0025   0.09368   0.08344  -0.1134  0.5543  1.0000  -2.3771   0.0000   0.0000   0.0000   0.3551
  10.500   1.0929   0.11302   0.10423  -0.0830  0.2486  1.0000  -2.8370   0.0000   0.0000   0.0000   0.3156
  12.000   1.0210   0.15904   0.14964  -0.1076  0.2821  1.0000  -2.2463   0.0000   0.0000   0.0000   0.3440
  13.000   0.9739   0.18696   0.17740  -0.1344  0.4683  1.0000  -1.8079   0.0000   0.0000   0.0000   0.3757
  13.500   0.9874   0.19553   0.18601  -0.1372  0.4572  1.0000  -1.7781   0.0000   0.0000   0.0000   0.3759
  14.000   1.0001   0.20297   0.19346  -0.1395  0.4387  1.0000  -1.7732   0.0000   0.0000   0.0000   0.3758
  14.500   1.0218   0.21200   0.20254  -0.1413  0.4127  1.0000  -1.8101   0.0000   0.0000   0.0000   0.3740
  15.000   1.0345   0.21897   0.20968  -0.1441  0.3981  1.0000  -1.8145   0.0000   0.0000   0.0000   0.3743
  15.500   1.0510   0.22652   0.21727  -0.1469  0.3819  1.0000  -1.8257   0.0000   0.0000   0.0000   0.3741
  16.000   1.0707   0.23538   0.22615  -0.1498  0.3673  1.0000  -1.8398   0.0000   0.0000   0.0000   0.3735
  16.500   1.0844   0.24129   0.23207  -0.1528  0.3498  1.0000  -1.8374   0.0000   0.0000   0.0000   0.3738
  17.000   1.1009   0.24816   0.23895  -0.1558  0.3306  1.0000  -1.8396   0.0000   0.0000   0.0000   0.3735
  17.500   1.1207   0.25641   0.24722  -0.1586  0.3123  1.0000  -1.8470   0.0000   0.0000   0.0000   0.3727
  18.000   1.1355   0.26228   0.25311  -0.1622  0.2973  1.0000  -1.8351   0.0000   0.0000   0.0000   0.3732
  18.500   1.1559   0.27086   0.26173  -0.1653  0.2829  1.0000  -1.8620   0.0000   0.0000   0.0000   0.3726
  19.000   1.1746   0.27914   0.27003  -0.1688  0.2703  1.0000  -1.9037   0.0000   0.0000   0.0000   0.3724
  19.500   1.1882   0.28404   0.27492  -0.1730  0.2580  1.0000  -1.9202   0.0000   0.0000   0.0000   0.3734
  20.000   1.2036   0.28966   0.28068  -0.1771  0.2439  1.0000  -1.9412   0.0000   0.0000   0.0000   0.3740


