xflr5 v6.61

 Calculated polar for: BLD_50

 1 1 Reynolds number fixed          Mach number fixed         

 xtrf =   1.000 (top)        1.000 (bottom)
 Mach =   0.200     Re =     0.080 e 6     Ncrit =   9.000

  alpha     CL        CD       CDp       Cm    Top Xtr Bot Xtr   Cpmin    Chinge    XCp    
 ------- -------- --------- --------- -------- ------- ------- -------- --------- ---------
 -26.500  -0.5142   0.27411   0.26862   0.0201  1.0000  0.0228  -0.9282   0.0000   0.0000   0.0000   0.2796
 -26.000  -0.5065   0.26854   0.26299   0.0178  1.0000  0.0236  -0.9126   0.0000   0.0000   0.0000   0.2761
 -25.500  -0.4987   0.26356   0.25798   0.0153  1.0000  0.0245  -0.9107   0.0000   0.0000   0.0000   0.2721
 -25.000  -0.4909   0.25872   0.25310   0.0128  1.0000  0.0254  -0.9122   0.0000   0.0000   0.0000   0.2680
 -24.500  -0.4830   0.25399   0.24834   0.0103  1.0000  0.0264  -0.9152   0.0000   0.0000   0.0000   0.2636
 -24.000  -0.4750   0.24956   0.24389   0.0078  1.0000  0.0274  -0.9232   0.0000   0.0000   0.0000   0.2590
 -23.500  -0.4679   0.24631   0.24061   0.0050  1.0000  0.0280  -0.9473   0.0000   0.0000   0.0000   0.2536
 -23.000  -0.4636   0.24529   0.23954   0.0020  1.0000  0.0284  -0.9897   0.0000   0.0000   0.0000   0.2475
 -22.500  -0.4543   0.23857   0.23283  -0.0000  1.0000  0.0288  -0.9682   0.0000   0.0000   0.0000   0.2433
 -22.000  -0.4428   0.23079   0.22503  -0.0013  1.0000  0.0301  -0.8894   0.0000   0.0000   0.0000   0.2406
 -21.500  -0.4341   0.22608   0.22029  -0.0033  1.0000  0.0316  -0.8876   0.0000   0.0000   0.0000   0.2363
 -21.000  -0.4257   0.22164   0.21583  -0.0053  1.0000  0.0331  -0.9012   0.0000   0.0000   0.0000   0.2316
 -20.500  -0.4174   0.21734   0.21151  -0.0073  1.0000  0.0346  -0.9219   0.0000   0.0000   0.0000   0.2267
 -20.000  -0.4094   0.21333   0.20747  -0.0094  1.0000  0.0361  -0.9520   0.0000   0.0000   0.0000   0.2214
 -19.500  -0.4029   0.21038   0.20450  -0.0117  1.0000  0.0370  -1.0028   0.0000   0.0000   0.0000   0.2155
 -19.000  -0.3996   0.20925   0.20336  -0.0142  1.0000  0.0374  -1.0731   0.0000   0.0000   0.0000   0.2091
 -18.500  -0.3901   0.20332   0.19745  -0.0156  1.0000  0.0379  -1.0708   0.0000   0.0000   0.0000   0.2046
 -18.000  -0.3782   0.19668   0.19080  -0.0164  1.0000  0.0394  -1.0095   0.0000   0.0000   0.0000   0.2014
 -17.500  -0.3700   0.19254   0.18665  -0.0177  1.0000  0.0412  -0.9942   0.0000   0.0000   0.0000   0.1968
 -17.000  -0.3627   0.18879   0.18290  -0.0192  1.0000  0.0431  -0.9916   0.0000   0.0000   0.0000   0.1919
 -16.500  -0.3574   0.18606   0.18016  -0.0209  1.0000  0.0452  -1.0133   0.0000   0.0000   0.0000   0.1863
 -16.000  -0.3607   0.18730   0.18137  -0.0232  1.0000  0.0460  -1.0931   0.0000   0.0000   0.0000   0.1804
 -15.500  -0.3465   0.17882   0.17292  -0.0234  1.0000  0.0475  -1.0141   0.0000   0.0000   0.0000   0.1773
 -15.000  -0.3386   0.17454   0.16864  -0.0239  1.0000  0.0499  -0.9939   0.0000   0.0000   0.0000   0.1740
 -14.500  -0.3325   0.17066   0.16477  -0.0249  1.0000  0.0524  -1.0171   0.0000   0.0000   0.0000   0.1697
 -14.000  -0.3299   0.16742   0.16154  -0.0262  1.0000  0.0548  -1.0739   0.0000   0.0000   0.0000   0.1651
 -13.500  -0.3358   0.16635   0.16049  -0.0282  1.0000  0.0557  -1.1844   0.0000   0.0000   0.0000   0.1607
 -13.000  -0.3220   0.15805   0.15222  -0.0280  1.0000  0.0573  -1.1502   0.0000   0.0000   0.0000   0.1576
 -12.500  -0.3132   0.15234   0.14654  -0.0281  1.0000  0.0603  -1.1303   0.0000   0.0000   0.0000   0.1550
 -12.000  -0.3089   0.14751   0.14174  -0.0288  1.0000  0.0636  -1.1552   0.0000   0.0000   0.0000   0.1515
 -11.500  -0.3132   0.14450   0.13879  -0.0306  1.0000  0.0655  -1.2461   0.0000   0.0000   0.0000   0.1473
 -11.000  -0.3035   0.13728   0.13159  -0.0304  1.0000  0.0672  -1.2270   0.0000   0.0000   0.0000   0.1449
 -10.500  -0.2939   0.13110   0.12545  -0.0299  1.0000  0.0711  -1.1857   0.0000   0.0000   0.0000   0.1435
 -10.000  -0.2972   0.12720   0.12164  -0.0310  1.0000  0.0751  -1.2453   0.0000   0.0000   0.0000   0.1412
  -9.750  -0.3500   0.12610   0.12016  -0.0282  1.0000  0.0726  -1.3859   0.0000   0.0000   0.0000   0.1636
  -9.500  -0.2898   0.12041   0.11494  -0.0303  1.0000  0.0780  -1.2188   0.0000   0.0000   0.0000   0.1412
  -9.250  -0.3585   0.12411   0.11832  -0.0307  1.0000  0.0755  -1.4972   0.0000   0.0000   0.0000   0.1592
  -9.000  -0.2853   0.11496   0.10958  -0.0295  1.0000  0.0837  -1.1953   0.0000   0.0000   0.0000   0.1425
  -8.750  -0.3393   0.11540   0.10968  -0.0285  1.0000  0.0802  -1.3801   0.0000   0.0000   0.0000   0.1608
  -8.500  -0.3030   0.11273   0.10751  -0.0305  1.0000  0.0863  -1.3078   0.0000   0.0000   0.0000   0.1460
  -8.250  -0.3431   0.11181   0.10623  -0.0288  1.0000  0.0854  -1.4193   0.0000   0.0000   0.0000   0.1613
  -8.000  -0.2853   0.10421   0.09907  -0.0275  1.0000  0.0910  -1.1923   0.0000   0.0000   0.0000   0.1502
  -7.750  -0.3716   0.11149   0.10617  -0.0284  1.0000  0.0865  -1.5611   0.0000   0.0000   0.0000   0.1698
  -7.500  -0.2962   0.10043   0.09544  -0.0262  1.0000  0.0959  -1.2293   0.0000   0.0000   0.0000   0.1587
  -7.250  -0.3422   0.10164   0.09633  -0.0250  1.0000  0.0932  -1.3785   0.0000   0.0000   0.0000   0.1731
  -7.000  -0.3320   0.09958   0.09483  -0.0237  1.0000  0.0971  -1.3543   0.0000   0.0000   0.0000   0.1766
  -6.750  -0.3664   0.09998   0.09491  -0.0241  1.0000  0.0967  -1.4777   0.0000   0.0000   0.0000   0.1812
  -6.500  -0.3118   0.09093   0.08624  -0.0196  1.0000  0.1033  -1.2592   0.0000   0.0000   0.0000   0.1850
  -6.250  -0.3604   0.09351   0.08857  -0.0207  1.0000  0.1004  -1.4420   0.0000   0.0000   0.0000   0.1896
  -6.000  -0.3601   0.09118   0.08629  -0.0202  1.0000  0.1037  -1.4466   0.0000   0.0000   0.0000   0.1911
  -5.750  -0.3617   0.08959   0.08478  -0.0257  1.0000  0.1073  -1.5288   0.0000   0.0000   0.0000   0.1766
  -5.500  -0.3584   0.08615   0.08141  -0.0250  1.0000  0.1090  -1.5274   0.0000   0.0000   0.0000   0.1778
  -5.250  -0.3539   0.08329   0.07859  -0.0223  1.0000  0.1124  -1.4901   0.0000   0.0000   0.0000   0.1845
  -5.000  -0.3375   0.08048   0.07577  -0.0346  1.0000  0.1188  -1.5983   0.0000   0.0000   0.0000   0.1451
  -4.750  -0.3373   0.07720   0.07257  -0.0281  1.0000  0.1209  -1.5295   0.0000   0.0000   0.0000   0.1645
  -4.500  -0.3265   0.07434   0.06968  -0.0295  1.0000  0.1270  -1.5183   0.0000   0.0000   0.0000   0.1575
  -4.000  -0.2867   0.06710   0.06237  -0.0402  1.0000  0.1414  -1.5443   0.0000   0.0000   0.0000   0.1075
  -3.750  -0.2638   0.06370   0.05892  -0.0447  1.0000  0.1520  -1.5317   0.0000   0.0000   0.0000   0.0785
  -2.500  -0.0522   0.03987   0.03375  -0.0817  1.0000  0.1306  -1.5906   0.0000   0.0000   0.0000  -1.3238
  -2.250   0.0389   0.03052   0.02270  -0.0952  1.0000  0.0857  -1.8298   0.0000   0.0000   0.0000   2.7119
  -2.000   0.0843   0.02776   0.01914  -0.0988  1.0000  0.0867  -1.8218   0.0000   0.0000   0.0000   1.4293
  -1.500   0.1516   0.02550   0.01646  -0.1021  1.0000  0.1196  -1.6595   0.0000   0.0000   0.0000   0.9264
  -1.250   0.1814   0.02495   0.01593  -0.1031  1.0000  0.1454  -1.5411   0.0000   0.0000   0.0000   0.8205
  -1.000   0.2123   0.02442   0.01532  -0.1042  1.0000  0.1694  -1.4152   0.0000   0.0000   0.0000   0.7419
  -0.750   0.2437   0.02401   0.01495  -0.1053  1.0000  0.1996  -1.2716   0.0000   0.0000   0.0000   0.6831
  -0.500   0.2834   0.02369   0.01482  -0.1082  0.9977  0.2640  -1.1213   0.0000   0.0000   0.0000   0.6321
  -0.250   0.3379   0.02282   0.01468  -0.1135  0.9926  0.4408  -0.9277   0.0000   0.0000   0.0000   0.5860
   0.000   0.3728   0.02167   0.01458  -0.1142  0.9819  1.0000  -0.7771   0.0000   0.0000   0.0000   0.5560
   0.250   0.4223   0.02221   0.01471  -0.1188  0.9706  1.0000  -0.5827   0.0000   0.0000   0.0000   0.5306
   0.500   0.4691   0.02262   0.01486  -0.1228  0.9584  1.0000  -0.5771   0.0000   0.0000   0.0000   0.5108
   0.750   0.5114   0.02293   0.01499  -0.1259  0.9445  1.0000  -0.6080   0.0000   0.0000   0.0000   0.4949
   1.000   0.5565   0.02314   0.01506  -0.1292  0.9319  1.0000  -0.6427   0.0000   0.0000   0.0000   0.4808
   1.250   0.6023   0.02324   0.01506  -0.1325  0.9197  1.0000  -0.6799   0.0000   0.0000   0.0000   0.4684
   1.500   0.6397   0.02334   0.01510  -0.1342  0.9043  1.0000  -0.7135   0.0000   0.0000   0.0000   0.4579
   1.750   0.6817   0.02328   0.01501  -0.1365  0.8909  1.0000  -0.7535   0.0000   0.0000   0.0000   0.4481
   2.000   0.7252   0.02307   0.01479  -0.1388  0.8785  1.0000  -0.7980   0.0000   0.0000   0.0000   0.4390
   2.250   0.7694   0.02269   0.01445  -0.1409  0.8665  1.0000  -0.8473   0.0000   0.0000   0.0000   0.4306
   2.500   0.8041   0.02251   0.01430  -0.1414  0.8506  1.0000  -0.8954   0.0000   0.0000   0.0000   0.4231
   2.750   0.8467   0.02201   0.01385  -0.1430  0.8376  1.0000  -0.9554   0.0000   0.0000   0.0000   0.4158
   3.000   0.8895   0.02139   0.01329  -0.1443  0.8247  1.0000  -1.0234   0.0000   0.0000   0.0000   0.4089
   3.250   0.9248   0.02104   0.01304  -0.1444  0.8079  1.0000  -1.0907   0.0000   0.0000   0.0000   0.4026
   3.500   0.9654   0.02045   0.01253  -0.1452  0.7927  1.0000  -1.1898   0.0000   0.0000   0.0000   0.3966
   3.750   0.9993   0.02017   0.01231  -0.1449  0.7736  1.0000  -1.2852   0.0000   0.0000   0.0000   0.3910
   4.000   1.0335   0.01989   0.01213  -0.1446  0.7535  1.0000  -1.4001   0.0000   0.0000   0.0000   0.3857
   4.250   1.0661   0.01971   0.01200  -0.1441  0.7317  1.0000  -1.5632   0.0000   0.0000   0.0000   0.3806
   4.500   1.0972   0.01963   0.01195  -0.1433  0.7082  1.0000  -1.7273   0.0000   0.0000   0.0000   0.3758
   4.750   1.1278   0.01960   0.01193  -0.1423  0.6834  1.0000  -1.8955   0.0000   0.0000   0.0000   0.3711
   5.000   1.1530   0.01980   0.01223  -0.1406  0.6556  1.0000  -2.0783   0.0000   0.0000   0.0000   0.3666
   5.250   1.1797   0.01999   0.01240  -0.1391  0.6275  1.0000  -2.2735   0.0000   0.0000   0.0000   0.3623
   5.500   1.2040   0.02028   0.01269  -0.1373  0.5973  1.0000  -2.4648   0.0000   0.0000   0.0000   0.3581
   5.750   1.2265   0.02063   0.01303  -0.1352  0.5650  1.0000  -2.6538   0.0000   0.0000   0.0000   0.3539
   6.000   1.2478   0.02103   0.01340  -0.1329  0.5304  1.0000  -2.8418   0.0000   0.0000   0.0000   0.3499
   6.250   1.2655   0.02148   0.01383  -0.1301  0.4909  1.0000  -3.0192   0.0000   0.0000   0.0000   0.3458
   6.500   1.2810   0.02198   0.01426  -0.1269  0.4470  1.0000  -3.1901   0.0000   0.0000   0.0000   0.3417
   6.750   1.2932   0.02260   0.01477  -0.1233  0.3972  1.0000  -3.3484   0.0000   0.0000   0.0000   0.3377
   7.000   1.3020   0.02343   0.01554  -0.1194  0.3392  1.0000  -3.5130   0.0000   0.0000   0.0000   0.3337
   7.250   1.3072   0.02469   0.01646  -0.1153  0.2739  1.0000  -3.6620   0.0000   0.0000   0.0000   0.3298
   7.500   1.3107   0.02650   0.01785  -0.1112  0.2108  1.0000  -3.7891   0.0000   0.0000   0.0000   0.3262
   7.750   1.3126   0.02877   0.01969  -0.1072  0.1587  1.0000  -3.8878   0.0000   0.0000   0.0000   0.3227
   8.000   1.3158   0.03123   0.02186  -0.1032  0.1238  1.0000  -3.9643   0.0000   0.0000   0.0000   0.3191
   8.250   1.3236   0.03373   0.02416  -0.0998  0.1023  1.0000  -4.0426   0.0000   0.0000   0.0000   0.3158
   8.500   1.3412   0.03644   0.02667  -0.0978  0.0887  1.0000  -4.1509   0.0000   0.0000   0.0000   0.3129
   8.750   1.3678   0.03931   0.02946  -0.0971  0.0792  1.0000  -4.2940   0.0000   0.0000   0.0000   0.3107
   9.000   1.3852   0.04151   0.03196  -0.0952  0.0717  1.0000  -4.4163   0.0000   0.0000   0.0000   0.3081
   9.250   1.4082   0.04468   0.03536  -0.0942  0.0669  1.0000  -4.5886   0.0000   0.0000   0.0000   0.3059
   9.500   1.4273   0.04805   0.03914  -0.0925  0.0642  1.0000  -4.7205   0.0000   0.0000   0.0000   0.3035
   9.750   1.4425   0.05158   0.04301  -0.0905  0.0624  1.0000  -4.8422   0.0000   0.0000   0.0000   0.3011
  10.000   1.4537   0.05535   0.04719  -0.0884  0.0612  1.0000  -4.9455   0.0000   0.0000   0.0000   0.2988
  10.250   1.4580   0.05935   0.05156  -0.0856  0.0607  1.0000  -5.0081   0.0000   0.0000   0.0000   0.2964
  10.500   1.4548   0.06335   0.05597  -0.0822  0.0605  1.0000  -5.0300   0.0000   0.0000   0.0000   0.2939
  10.750   1.4407   0.06700   0.06006  -0.0777  0.0608  1.0000  -5.0003   0.0000   0.0000   0.0000   0.2911
  11.000   1.4173   0.07056   0.06404  -0.0729  0.0613  1.0000  -4.9305   0.0000   0.0000   0.0000   0.2883
  11.250   1.3909   0.07458   0.06844  -0.0691  0.0619  1.0000  -4.8445   0.0000   0.0000   0.0000   0.2863
  11.500   1.3632   0.07924   0.07344  -0.0667  0.0625  1.0000  -4.7485   0.0000   0.0000   0.0000   0.2852
  11.750   1.3347   0.08456   0.07906  -0.0659  0.0632  1.0000  -4.6432   0.0000   0.0000   0.0000   0.2853
  12.000   1.3055   0.09066   0.08541  -0.0668  0.0639  1.0000  -4.5265   0.0000   0.0000   0.0000   0.2867
  12.250   1.2759   0.09768   0.09257  -0.0693  0.0647  1.0000  -4.3936   0.0000   0.0000   0.0000   0.2896
  12.500   1.2452   0.10588   0.10095  -0.0738  0.0656  1.0000  -4.2337   0.0000   0.0000   0.0000   0.2942
  12.750   1.2164   0.11517   0.11037  -0.0798  0.0667  1.0000  -4.0545   0.0000   0.0000   0.0000   0.3003
  13.000   1.1936   0.12471   0.11997  -0.0860  0.0678  1.0000  -3.8829   0.0000   0.0000   0.0000   0.3065
  13.250   1.1815   0.13280   0.12808  -0.0903  0.0688  1.0000  -3.7761   0.0000   0.0000   0.0000   0.3107


