xflr5 v6.61

 Calculated polar for: BLD_50

 1 1 Reynolds number fixed          Mach number fixed         

 xtrf =   1.000 (top)        1.000 (bottom)
 Mach =   0.200     Re =     0.050 e 6     Ncrit =   7.000

  alpha     CL        CD       CDp       Cm    Top Xtr Bot Xtr   Cpmin    Chinge    XCp    
 ------- -------- --------- --------- -------- ------- ------- -------- --------- ---------
 -14.000  -0.4405   0.17748   0.16939  -0.0169  1.0000  0.0694  -1.3203   0.0000   0.0000   0.0000   0.2038
 -13.500  -0.4278   0.17202   0.16397  -0.0189  1.0000  0.0734  -1.3330   0.0000   0.0000   0.0000   0.1982
 -13.000  -0.4238   0.16946   0.16151  -0.0222  1.0000  0.0756  -1.4118   0.0000   0.0000   0.0000   0.1906
 -12.500  -0.4039   0.16019   0.15229  -0.0223  1.0000  0.0793  -1.3519   0.0000   0.0000   0.0000   0.1878
 -12.000  -0.3945   0.15516   0.14733  -0.0239  1.0000  0.0848  -1.3653   0.0000   0.0000   0.0000   0.1825
 -11.500  -0.3894   0.15058   0.14287  -0.0260  1.0000  0.0873  -1.4093   0.0000   0.0000   0.0000   0.1768
 -11.000  -0.3733   0.14320   0.13553  -0.0259  1.0000  0.0933  -1.3559   0.0000   0.0000   0.0000   0.1743
 -10.500  -0.3753   0.14044   0.13285  -0.0282  1.0000  0.0969  -1.4260   0.0000   0.0000   0.0000   0.1689
 -10.000  -0.3572   0.13203   0.12450  -0.0275  1.0000  0.1014  -1.3592   0.0000   0.0000   0.0000   0.1671
  -9.500  -0.3566   0.12815   0.12076  -0.0287  1.0000  0.1070  -1.3924   0.0000   0.0000   0.0000   0.1639
  -9.000  -0.3460   0.12145   0.11417  -0.0283  1.0000  0.1111  -1.3603   0.0000   0.0000   0.0000   0.1629
  -8.500  -0.3472   0.11750   0.11038  -0.0285  1.0000  0.1177  -1.3795   0.0000   0.0000   0.0000   0.1630
  -8.000  -0.3405   0.11143   0.10445  -0.0274  1.0000  0.1222  -1.3506   0.0000   0.0000   0.0000   0.1650
  -7.500  -0.3513   0.10844   0.10167  -0.0262  1.0000  0.1287  -1.3895   0.0000   0.0000   0.0000   0.1715
  -7.000  -0.3478   0.10266   0.09605  -0.0235  1.0000  0.1342  -1.3859   0.0000   0.0000   0.0000   0.1788
  -6.500  -0.3655   0.10044   0.09410  -0.0249  1.0000  0.1403  -1.4782   0.0000   0.0000   0.0000   0.1790
  -6.000  -0.3607   0.09487   0.08868  -0.0240  1.0000  0.1509  -1.4780   0.0000   0.0000   0.0000   0.1807
  -5.000  -0.3447   0.08339   0.07742  -0.0220  1.0000  0.1782  -1.4519   0.0000   0.0000   0.0000   0.1839
  -4.500  -0.3270   0.07776   0.07186  -0.0282  1.0000  0.1959  -1.4771   0.0000   0.0000   0.0000   0.1616
  -4.000  -0.3064   0.07159   0.06575  -0.0283  1.0000  0.2128  -1.4418   0.0000   0.0000   0.0000   0.1554
  -3.000  -0.0935   0.04323   0.03556  -0.0800  1.0000  0.0859  -1.9553   0.0000   0.0000   0.0000  -0.6120
  -2.500   0.0004   0.03504   0.02619  -0.0917  1.0000  0.0845  -1.9144   0.0000   0.0000   0.0000  219.5065
  -2.000   0.0783   0.03084   0.02091  -0.0978  1.0000  0.1070  -1.8010   0.0000   0.0000   0.0000   1.5063
  -1.500   0.1454   0.02825   0.01778  -0.1008  1.0000  0.1426  -1.6445   0.0000   0.0000   0.0000   0.9464
  -1.000   0.2064   0.02692   0.01614  -0.1024  1.0000  0.1943  -1.3970   0.0000   0.0000   0.0000   0.7475
  -0.500   0.2670   0.02615   0.01553  -0.1043  1.0000  0.3010  -1.1299   0.0000   0.0000   0.0000   0.6410
   0.000   0.3091   0.02412   0.01554  -0.1022  0.9984  1.0000  -0.9152   0.0000   0.0000   0.0000   0.5802
   0.500   0.4049   0.02566   0.01600  -0.1112  0.9740  1.0000  -0.5445   0.0000   0.0000   0.0000   0.5237
   1.000   0.4927   0.02683   0.01666  -0.1185  0.9475  1.0000  -0.6023   0.0000   0.0000   0.0000   0.4890
   1.500   0.5775   0.02767   0.01724  -0.1246  0.9199  1.0000  -0.6697   0.0000   0.0000   0.0000   0.4638
   2.000   0.6544   0.02827   0.01773  -0.1287  0.8896  1.0000  -0.7411   0.0000   0.0000   0.0000   0.4443
   2.500   0.7288   0.02863   0.01813  -0.1317  0.8589  1.0000  -0.8229   0.0000   0.0000   0.0000   0.4279
   3.000   0.8023   0.02870   0.01829  -0.1338  0.8282  1.0000  -0.9240   0.0000   0.0000   0.0000   0.4135
   3.500   0.8775   0.02843   0.01825  -0.1354  0.7974  1.0000  -1.0494   0.0000   0.0000   0.0000   0.4005
   4.000   0.9500   0.02798   0.01804  -0.1358  0.7642  1.0000  -1.2253   0.0000   0.0000   0.0000   0.3888
   4.500   1.0232   0.02731   0.01771  -0.1357  0.7281  1.0000  -1.4826   0.0000   0.0000   0.0000   0.3779
   5.000   1.0899   0.02687   0.01754  -0.1343  0.6847  1.0000  -1.8224   0.0000   0.0000   0.0000   0.3680
   5.500   1.1491   0.02678   0.01779  -0.1316  0.6325  1.0000  -2.1992   0.0000   0.0000   0.0000   0.3587
   6.000   1.2020   0.02700   0.01818  -0.1278  0.5710  1.0000  -2.5954   0.0000   0.0000   0.0000   0.3498
   6.500   1.2456   0.02766   0.01889  -0.1227  0.4989  1.0000  -2.9716   0.0000   0.0000   0.0000   0.3413
   7.000   1.2740   0.02889   0.02008  -0.1157  0.4123  1.0000  -3.2936   0.0000   0.0000   0.0000   0.3330
   7.500   1.2865   0.03100   0.02203  -0.1073  0.3106  1.0000  -3.5771   0.0000   0.0000   0.0000   0.3249
   8.000   1.2914   0.03484   0.02526  -0.0992  0.2126  1.0000  -3.8017   0.0000   0.0000   0.0000   0.3176
   8.500   1.2924   0.03949   0.02943  -0.0918  0.1437  1.0000  -3.9771   0.0000   0.0000   0.0000   0.3111
   9.000   1.3044   0.04442   0.03424  -0.0860  0.1035  1.0000  -4.1614   0.0000   0.0000   0.0000   0.3054
   9.500   1.3523   0.05051   0.04057  -0.0837  0.0828  1.0000  -4.3991   0.0000   0.0000   0.0000   0.3007
  10.000   1.3875   0.05790   0.04867  -0.0809  0.0742  1.0000  -4.6330   0.0000   0.0000   0.0000   0.2965
  10.500   1.3904   0.06451   0.05577  -0.0756  0.0679  1.0000  -4.8063   0.0000   0.0000   0.0000   0.2919
  11.000   1.3639   0.07196   0.06403  -0.0694  0.0653  1.0000  -4.7879   0.0000   0.0000   0.0000   0.2878
  11.500   1.3297   0.08085   0.07354  -0.0660  0.0642  1.0000  -4.7193   0.0000   0.0000   0.0000   0.2859
  12.000   1.2845   0.09212   0.08537  -0.0669  0.0646  1.0000  -4.5565   0.0000   0.0000   0.0000   0.2876
  12.500   1.2337   0.10675   0.10042  -0.0733  0.0662  1.0000  -4.2977   0.0000   0.0000   0.0000   0.2944
  13.000   1.1903   0.12388   0.11775  -0.0835  0.0681  1.0000  -3.9957   0.0000   0.0000   0.0000   0.3046
  13.500   1.1603   0.14171   0.13567  -0.0946  0.0695  1.0000  -3.6872   0.0000   0.0000   0.0000   0.3157
  14.500   1.1188   0.18201   0.17573  -0.1216  0.0776  1.0000  -2.7946   0.0000   0.0000   0.0000   0.3425
  15.000   1.1248   0.19342   0.18711  -0.1276  0.0784  1.0000  -2.7060   0.0000   0.0000   0.0000   0.3467
  15.500   1.1301   0.20693   0.20059  -0.1357  0.0885  1.0000  -2.5077   0.0000   0.0000   0.0000   0.3528
  16.000   1.1300   0.22511   0.21877  -0.1499  0.1495  1.0000  -2.0818   0.0000   0.0000   0.0000   0.3651
  16.500   1.1424   0.23291   0.22659  -0.1546  0.1446  1.0000  -2.0704   0.0000   0.0000   0.0000   0.3671
  17.000   1.1624   0.24250   0.23620  -0.1575  0.1409  1.0000  -2.1024   0.0000   0.0000   0.0000   0.3665
  17.500   1.1704   0.24832   0.24202  -0.1638  0.1339  1.0000  -2.0529   0.0000   0.0000   0.0000   0.3700
  18.000   1.1846   0.25583   0.24952  -0.1685  0.1280  1.0000  -2.0449   0.0000   0.0000   0.0000   0.3715
  18.500   1.2019   0.26359   0.25729  -0.1721  0.1192  1.0000  -2.1114   0.0000   0.0000   0.0000   0.3715
  19.000   1.2209   0.27175   0.26559  -0.1753  0.1107  1.0000  -2.1903   0.0000   0.0000   0.0000   0.3710
  19.500   1.2300   0.27690   0.27070  -0.1827  0.1065  1.0000  -2.1373   0.0000   0.0000   0.0000   0.3750
  20.000   1.2522   0.28653   0.28041  -0.1847  0.1003  1.0000  -2.2370   0.0000   0.0000   0.0000   0.3730


