xflr5 v6.61

 Calculated polar for: BLD_75

 1 1 Reynolds number fixed          Mach number fixed         

 xtrf =   1.000 (top)        1.000 (bottom)
 Mach =   0.200     Re =     0.070 e 6     Ncrit =   9.000

  alpha     CL        CD       CDp       Cm    Top Xtr Bot Xtr   Cpmin    Chinge    XCp    
 ------- -------- --------- --------- -------- ------- ------- -------- --------- ---------
 -18.500  -0.6043   0.23031   0.22336   0.0161  1.0000  0.0390  -1.4627   0.0000   0.0000   0.0000   0.2668
 -18.000  -0.5863   0.22383   0.21689   0.0130  1.0000  0.0410  -1.4373   0.0000   0.0000   0.0000   0.2625
 -17.500  -0.5689   0.21788   0.21095   0.0095  1.0000  0.0433  -1.4358   0.0000   0.0000   0.0000   0.2574
 -17.000  -0.5527   0.21303   0.20612   0.0054  1.0000  0.0453  -1.4651   0.0000   0.0000   0.0000   0.2508
 -16.500  -0.5422   0.21158   0.20472   0.0003  1.0000  0.0461  -1.5472   0.0000   0.0000   0.0000   0.2421
 -16.000  -0.5202   0.20044   0.19360  -0.0012  1.0000  0.0474  -1.4598   0.0000   0.0000   0.0000   0.2394
 -15.500  -0.5023   0.19339   0.18652  -0.0034  1.0000  0.0500  -1.3969   0.0000   0.0000   0.0000   0.2351
 -15.000  -0.4865   0.18751   0.18066  -0.0063  1.0000  0.0533  -1.3737   0.0000   0.0000   0.0000   0.2291
 -14.500  -0.4769   0.18461   0.17781  -0.0108  1.0000  0.0556  -1.4266   0.0000   0.0000   0.0000   0.2200
 -14.000  -0.4590   0.17591   0.16916  -0.0124  1.0000  0.0574  -1.3631   0.0000   0.0000   0.0000   0.2156
 -13.500  -0.4423   0.16896   0.16223  -0.0141  1.0000  0.0608  -1.2959   0.0000   0.0000   0.0000   0.2110
 -13.000  -0.4302   0.16358   0.15690  -0.0169  1.0000  0.0645  -1.3326   0.0000   0.0000   0.0000   0.2038
 -12.500  -0.4295   0.16175   0.15516  -0.0213  1.0000  0.0659  -1.4540   0.0000   0.0000   0.0000   0.1940
 -12.000  -0.4045   0.15069   0.14412  -0.0208  1.0000  0.0692  -1.3642   0.0000   0.0000   0.0000   0.1920
 -11.500  -0.3935   0.14502   0.13845  -0.0228  1.0000  0.0737  -1.3844   0.0000   0.0000   0.0000   0.1857
 -11.000  -0.3979   0.14336   0.13691  -0.0271  1.0000  0.0757  -1.5140   0.0000   0.0000   0.0000   0.1761
 -10.500  -0.3723   0.13265   0.12622  -0.0258  1.0000  0.0800  -1.4087   0.0000   0.0000   0.0000   0.1748
 -10.000  -0.3675   0.12805   0.12172  -0.0279  1.0000  0.0854  -1.4499   0.0000   0.0000   0.0000   0.1685
  -9.750  -0.3738   0.12759   0.12134  -0.0301  1.0000  0.0863  -1.5251   0.0000   0.0000   0.0000   0.1644
  -9.500  -0.3575   0.12141   0.11517  -0.0284  1.0000  0.0892  -1.4408   0.0000   0.0000   0.0000   0.1651
  -9.250  -0.3521   0.11848   0.11228  -0.0284  1.0000  0.0930  -1.4240   0.0000   0.0000   0.0000   0.1640
  -9.000  -0.3542   0.11684   0.11072  -0.0295  1.0000  0.0960  -1.4605   0.0000   0.0000   0.0000   0.1617
  -8.750  -0.3641   0.11654   0.11054  -0.0311  1.0000  0.0970  -1.5373   0.0000   0.0000   0.0000   0.1599
  -8.500  -0.3468   0.11060   0.10460  -0.0293  1.0000  0.1001  -1.4467   0.0000   0.0000   0.0000   0.1609
  -8.250  -0.3436   0.10793   0.10198  -0.0289  1.0000  0.1035  -1.4341   0.0000   0.0000   0.0000   0.1612
  -8.000  -0.3490   0.10650   0.10064  -0.0293  1.0000  0.1065  -1.4698   0.0000   0.0000   0.0000   0.1619
  -7.750  -0.3644   0.10641   0.10071  -0.0294  1.0000  0.1075  -1.5426   0.0000   0.0000   0.0000   0.1657
  -7.500  -0.3498   0.10118   0.09549  -0.0278  1.0000  0.1103  -1.4698   0.0000   0.0000   0.0000   0.1668
  -7.250  -0.3488   0.09868   0.09306  -0.0264  1.0000  0.1138  -1.4492   0.0000   0.0000   0.0000   0.1707
  -7.000  -0.3589   0.09743   0.09194  -0.0252  1.0000  0.1168  -1.4776   0.0000   0.0000   0.0000   0.1766
  -6.750  -0.3722   0.09695   0.09160  -0.0279  1.0000  0.1185  -1.5637   0.0000   0.0000   0.0000   0.1723
  -6.500  -0.3631   0.09247   0.08716  -0.0241  1.0000  0.1214  -1.4855   0.0000   0.0000   0.0000   0.1807
  -6.250  -0.3623   0.09004   0.08479  -0.0233  1.0000  0.1257  -1.4688   0.0000   0.0000   0.0000   0.1831
  -6.000  -0.3683   0.08895   0.08379  -0.0295  1.0000  0.1294  -1.5636   0.0000   0.0000   0.0000   0.1675
  -5.500  -0.3598   0.08250   0.07740  -0.0252  1.0000  0.1381  -1.4781   0.0000   0.0000   0.0000   0.1776
  -5.250  -0.3554   0.07950   0.07445  -0.0275  1.0000  0.1422  -1.5043   0.0000   0.0000   0.0000   0.1704
  -5.000  -0.3487   0.07677   0.07175  -0.0276  1.0000  0.1489  -1.4950   0.0000   0.0000   0.0000   0.1689
  -4.750  -0.3406   0.07357   0.06858  -0.0291  1.0000  0.1543  -1.5012   0.0000   0.0000   0.0000   0.1626
  -4.500  -0.3284   0.07049   0.06549  -0.0322  1.0000  0.1641  -1.5082   0.0000   0.0000   0.0000   0.1500
  -4.250  -0.3170   0.06752   0.06254  -0.0331  1.0000  0.1756  -1.4911   0.0000   0.0000   0.0000   0.1436
  -4.000  -0.3046   0.06462   0.05964  -0.0338  1.0000  0.1882  -1.4677   0.0000   0.0000   0.0000   0.1373
  -2.500  -0.0462   0.03380   0.02633  -0.0790  1.0000  0.1037  -1.7614   0.0000   0.0000   0.0000  -1.4717
  -2.250  -0.0002   0.03010   0.02178  -0.0832  1.0000  0.1004  -1.7632   0.0000   0.0000   0.0000  -352.2857
  -2.000   0.0312   0.02874   0.02011  -0.0847  1.0000  0.1141  -1.6759   0.0000   0.0000   0.0000   2.9835
  -1.750   0.0675   0.02687   0.01776  -0.0865  1.0000  0.1228  -1.6421   0.0000   0.0000   0.0000   1.5389
  -1.500   0.1003   0.02569   0.01620  -0.0877  1.0000  0.1391  -1.5751   0.0000   0.0000   0.0000   1.1282
  -1.250   0.1291   0.02497   0.01537  -0.0883  1.0000  0.1611  -1.4669   0.0000   0.0000   0.0000   0.9369
  -1.000   0.1576   0.02443   0.01485  -0.0891  1.0000  0.1876  -1.3395   0.0000   0.0000   0.0000   0.8171
  -0.750   0.1864   0.02399   0.01444  -0.0898  1.0000  0.2241  -1.2264   0.0000   0.0000   0.0000   0.7331
  -0.500   0.2164   0.02364   0.01427  -0.0908  1.0000  0.2868  -1.1106   0.0000   0.0000   0.0000   0.6703
  -0.250   0.2624   0.02140   0.01395  -0.0937  1.0000  0.6978  -0.9492   0.0000   0.0000   0.0000   0.6074
   0.000   0.3039   0.02170   0.01387  -0.0968  0.9836  1.0000  -0.7862   0.0000   0.0000   0.0000   0.5683
   0.250   0.3537   0.02235   0.01415  -0.1017  0.9710  1.0000  -0.5905   0.0000   0.0000   0.0000   0.5369
   0.500   0.4036   0.02292   0.01442  -0.1064  0.9589  1.0000  -0.5447   0.0000   0.0000   0.0000   0.5128
   0.750   0.4450   0.02338   0.01470  -0.1095  0.9438  1.0000  -0.5712   0.0000   0.0000   0.0000   0.4950
   1.000   0.4906   0.02376   0.01494  -0.1132  0.9305  1.0000  -0.6019   0.0000   0.0000   0.0000   0.4794
   1.250   0.5326   0.02409   0.01517  -0.1161  0.9165  1.0000  -0.6318   0.0000   0.0000   0.0000   0.4664
   1.500   0.5716   0.02437   0.01539  -0.1183  0.9016  1.0000  -0.6615   0.0000   0.0000   0.0000   0.4551
   1.750   0.6147   0.02451   0.01550  -0.1210  0.8885  1.0000  -0.6956   0.0000   0.0000   0.0000   0.4448
   2.000   0.6551   0.02462   0.01559  -0.1230  0.8751  1.0000  -0.7299   0.0000   0.0000   0.0000   0.4356
   2.250   0.6901   0.02477   0.01577  -0.1241  0.8600  1.0000  -0.7626   0.0000   0.0000   0.0000   0.4274
   2.500   0.7311   0.02471   0.01576  -0.1259  0.8472  1.0000  -0.8031   0.0000   0.0000   0.0000   0.4196
   2.750   0.7719   0.02454   0.01564  -0.1274  0.8351  1.0000  -0.8479   0.0000   0.0000   0.0000   0.4123
   3.000   0.8088   0.02442   0.01559  -0.1282  0.8219  1.0000  -0.8984   0.0000   0.0000   0.0000   0.4055
   3.250   0.8400   0.02449   0.01578  -0.1281  0.8065  1.0000  -0.9572   0.0000   0.0000   0.0000   0.3992
   3.500   0.8768   0.02427   0.01565  -0.1286  0.7933  1.0000  -1.0504   0.0000   0.0000   0.0000   0.3931
   3.750   0.9145   0.02394   0.01543  -0.1290  0.7804  1.0000  -1.1860   0.0000   0.0000   0.0000   0.3873
   4.000   0.9420   0.02412   0.01576  -0.1281  0.7634  1.0000  -1.3249   0.0000   0.0000   0.0000   0.3820
   4.250   0.9776   0.02382   0.01559  -0.1279  0.7490  1.0000  -1.4927   0.0000   0.0000   0.0000   0.3767
   4.500   1.0058   0.02391   0.01582  -0.1269  0.7312  1.0000  -1.6579   0.0000   0.0000   0.0000   0.3717
   4.750   1.0401   0.02361   0.01564  -0.1263  0.7147  1.0000  -1.8664   0.0000   0.0000   0.0000   0.3667
   5.000   1.0694   0.02354   0.01577  -0.1251  0.6948  1.0000  -2.0639   0.0000   0.0000   0.0000   0.3620
   5.250   1.0988   0.02336   0.01571  -0.1235  0.6728  1.0000  -2.2692   0.0000   0.0000   0.0000   0.3572
   5.500   1.1245   0.02328   0.01575  -0.1215  0.6467  1.0000  -2.4706   0.0000   0.0000   0.0000   0.3524
   5.750   1.1521   0.02293   0.01544  -0.1192  0.6170  1.0000  -2.7203   0.0000   0.0000   0.0000   0.3476
   6.000   1.1739   0.02269   0.01525  -0.1160  0.5800  1.0000  -2.9506   0.0000   0.0000   0.0000   0.3426
   6.250   1.1937   0.02252   0.01508  -0.1127  0.5387  1.0000  -3.1757   0.0000   0.0000   0.0000   0.3378
   6.500   1.2095   0.02256   0.01514  -0.1089  0.4914  1.0000  -3.3791   0.0000   0.0000   0.0000   0.3331
   6.750   1.2177   0.02280   0.01527  -0.1040  0.4226  1.0000  -3.5423   0.0000   0.0000   0.0000   0.3282
   7.000   1.2119   0.02415   0.01590  -0.0976  0.2884  1.0000  -3.6204   0.0000   0.0000   0.0000   0.3229
   7.250   1.2011   0.02759   0.01823  -0.0919  0.1705  1.0000  -3.6301   0.0000   0.0000   0.0000   0.3186
   7.500   1.2024   0.03049   0.02065  -0.0878  0.1286  1.0000  -3.6678   0.0000   0.0000   0.0000   0.3148
   7.750   1.2134   0.03300   0.02296  -0.0847  0.1081  1.0000  -3.7346   0.0000   0.0000   0.0000   0.3113
   8.000   1.2371   0.03559   0.02544  -0.0832  0.0949  1.0000  -3.8762   0.0000   0.0000   0.0000   0.3084
   8.250   1.2633   0.03820   0.02801  -0.0824  0.0838  1.0000  -4.0690   0.0000   0.0000   0.0000   0.3060
   8.500   1.2906   0.04115   0.03113  -0.0817  0.0763  1.0000  -4.2475   0.0000   0.0000   0.0000   0.3038
   8.750   1.3206   0.04464   0.03475  -0.0814  0.0722  1.0000  -4.4211   0.0000   0.0000   0.0000   0.3018
   9.000   1.3448   0.04890   0.03931  -0.0805  0.0702  1.0000  -4.5373   0.0000   0.0000   0.0000   0.2998
   9.250   1.3573   0.05273   0.04371  -0.0780  0.0696  1.0000  -4.5859   0.0000   0.0000   0.0000   0.2971
   9.500   1.3623   0.05656   0.04810  -0.0749  0.0690  1.0000  -4.6092   0.0000   0.0000   0.0000   0.2943
   9.750   1.3604   0.06029   0.05235  -0.0715  0.0681  1.0000  -4.6136   0.0000   0.0000   0.0000   0.2916
  10.000   1.3535   0.06401   0.05652  -0.0679  0.0671  1.0000  -4.6068   0.0000   0.0000   0.0000   0.2890
  10.250   1.3424   0.06775   0.06065  -0.0644  0.0665  1.0000  -4.5884   0.0000   0.0000   0.0000   0.2865
  10.500   1.3259   0.07139   0.06462  -0.0607  0.0663  1.0000  -4.5529   0.0000   0.0000   0.0000   0.2841
  10.750   1.3061   0.07523   0.06875  -0.0574  0.0666  1.0000  -4.5024   0.0000   0.0000   0.0000   0.2820
  11.000   1.2842   0.07948   0.07326  -0.0552  0.0671  1.0000  -4.4402   0.0000   0.0000   0.0000   0.2807
  11.250   1.2615   0.08425   0.07826  -0.0542  0.0677  1.0000  -4.3696   0.0000   0.0000   0.0000   0.2804
  11.500   1.2390   0.08956   0.08377  -0.0544  0.0684  1.0000  -4.2937   0.0000   0.0000   0.0000   0.2810
  11.750   1.2177   0.09541   0.08978  -0.0557  0.0691  1.0000  -4.2155   0.0000   0.0000   0.0000   0.2826
  12.000   1.1990   0.10167   0.09615  -0.0578  0.0698  1.0000  -4.1395   0.0000   0.0000   0.0000   0.2847
  12.250   1.1840   0.10816   0.10274  -0.0602  0.0704  1.0000  -4.0715   0.0000   0.0000   0.0000   0.2870


