xflr5 v6.61

 Calculated polar for: BLD_50

 1 1 Reynolds number fixed          Mach number fixed         

 xtrf =   1.000 (top)        1.000 (bottom)
 Mach =   0.200     Re =     0.070 e 6     Ncrit =   7.000

  alpha     CL        CD       CDp       Cm    Top Xtr Bot Xtr   Cpmin    Chinge    XCp    
 ------- -------- --------- --------- -------- ------- ------- -------- --------- ---------
 -24.500  -0.7777   0.29704   0.28995   0.0530  1.0000  0.0228  -1.6211   0.0000   0.0000   0.0000   0.3019
 -24.000  -0.7612   0.29081   0.28371   0.0490  1.0000  0.0236  -1.5668   0.0000   0.0000   0.0000   0.2988
 -23.500  -0.7445   0.28516   0.27804   0.0449  1.0000  0.0245  -1.5288   0.0000   0.0000   0.0000   0.2953
 -23.000  -0.7275   0.27959   0.27246   0.0407  1.0000  0.0255  -1.4968   0.0000   0.0000   0.0000   0.2915
 -22.500  -0.7104   0.27411   0.26697   0.0365  1.0000  0.0266  -1.4705   0.0000   0.0000   0.0000   0.2875
 -22.000  -0.6932   0.26978   0.26264   0.0318  1.0000  0.0278  -1.4703   0.0000   0.0000   0.0000   0.2825
 -21.500  -0.6792   0.26962   0.26248   0.0261  1.0000  0.0284  -1.5469   0.0000   0.0000   0.0000   0.2757
 -21.000  -0.6607   0.26001   0.25289   0.0231  1.0000  0.0289  -1.5242   0.0000   0.0000   0.0000   0.2726
 -20.500  -0.6424   0.25144   0.24430   0.0205  1.0000  0.0300  -1.4586   0.0000   0.0000   0.0000   0.2700
 -20.000  -0.6252   0.24534   0.23821   0.0172  1.0000  0.0312  -1.4364   0.0000   0.0000   0.0000   0.2660
 -19.500  -0.6081   0.23951   0.23239   0.0138  1.0000  0.0327  -1.4282   0.0000   0.0000   0.0000   0.2616
 -19.000  -0.5911   0.23375   0.22663   0.0103  1.0000  0.0342  -1.4272   0.0000   0.0000   0.0000   0.2567
 -18.500  -0.5743   0.22820   0.22105   0.0068  1.0000  0.0358  -1.4353   0.0000   0.0000   0.0000   0.2515
 -18.000  -0.5585   0.22355   0.21643   0.0029  1.0000  0.0369  -1.4655   0.0000   0.0000   0.0000   0.2452
 -17.500  -0.5453   0.22031   0.21322  -0.0013  1.0000  0.0374  -1.5146   0.0000   0.0000   0.0000   0.2380
 -17.000  -0.5294   0.21369   0.20665  -0.0042  1.0000  0.0378  -1.5051   0.0000   0.0000   0.0000   0.2327
 -16.500  -0.5098   0.20459   0.19756  -0.0054  1.0000  0.0395  -1.3940   0.0000   0.0000   0.0000   0.2303
 -16.000  -0.4938   0.19862   0.19161  -0.0078  1.0000  0.0420  -1.3501   0.0000   0.0000   0.0000   0.2253
 -15.500  -0.4793   0.19336   0.18638  -0.0108  1.0000  0.0447  -1.3411   0.0000   0.0000   0.0000   0.2190
 -15.000  -0.4700   0.19058   0.18362  -0.0147  1.0000  0.0459  -1.3919   0.0000   0.0000   0.0000   0.2106
 -14.500  -0.4557   0.18357   0.17667  -0.0168  1.0000  0.0467  -1.4007   0.0000   0.0000   0.0000   0.2052
 -14.000  -0.4372   0.17519   0.16831  -0.0173  1.0000  0.0489  -1.3334   0.0000   0.0000   0.0000   0.2025
 -13.500  -0.4237   0.16928   0.16244  -0.0190  1.0000  0.0516  -1.3336   0.0000   0.0000   0.0000   0.1974
 -13.000  -0.4128   0.16408   0.15730  -0.0212  1.0000  0.0545  -1.3707   0.0000   0.0000   0.0000   0.1911
 -12.500  -0.4093   0.16116   0.15446  -0.0245  1.0000  0.0557  -1.4706   0.0000   0.0000   0.0000   0.1832
 -12.000  -0.3931   0.15264   0.14600  -0.0248  1.0000  0.0571  -1.4344   0.0000   0.0000   0.0000   0.1799
 -11.500  -0.3792   0.14598   0.13938  -0.0252  1.0000  0.0601  -1.3909   0.0000   0.0000   0.0000   0.1768
 -11.000  -0.3705   0.14060   0.13407  -0.0265  1.0000  0.0636  -1.4044   0.0000   0.0000   0.0000   0.1719
 -10.500  -0.3720   0.13762   0.13121  -0.0293  1.0000  0.0656  -1.5031   0.0000   0.0000   0.0000   0.1652
 -10.000  -0.3543   0.12917   0.12277  -0.0282  1.0000  0.0690  -1.4130   0.0000   0.0000   0.0000   0.1643
  -9.500  -0.3492   0.12439   0.11809  -0.0290  1.0000  0.0742  -1.4217   0.0000   0.0000   0.0000   0.1612
  -9.000  -0.3628   0.12297   0.11686  -0.0316  1.0000  0.0758  -1.5567   0.0000   0.0000   0.0000   0.1580
  -8.500  -0.3377   0.11329   0.10722  -0.0286  1.0000  0.0807  -1.3977   0.0000   0.0000   0.0000   0.1601
  -8.000  -0.3423   0.10956   0.10365  -0.0286  1.0000  0.0853  -1.4360   0.0000   0.0000   0.0000   0.1619
  -7.500  -0.3689   0.10853   0.10288  -0.0278  1.0000  0.0864  -1.5630   0.0000   0.0000   0.0000   0.1711
  -7.000  -0.3472   0.09992   0.09433  -0.0241  1.0000  0.0911  -1.4216   0.0000   0.0000   0.0000   0.1769
  -6.500  -0.3601   0.09667   0.09127  -0.0233  1.0000  0.0960  -1.4903   0.0000   0.0000   0.0000   0.1822
  -6.000  -0.3602   0.09126   0.08603  -0.0234  1.0000  0.0988  -1.5267   0.0000   0.0000   0.0000   0.1822
  -5.500  -0.3539   0.08608   0.08096  -0.0239  1.0000  0.1056  -1.5326   0.0000   0.0000   0.0000   0.1799
  -5.000  -0.3423   0.08003   0.07500  -0.0270  1.0000  0.1107  -1.5600   0.0000   0.0000   0.0000   0.1688
  -4.500  -0.3160   0.07338   0.06832  -0.0350  1.0000  0.1200  -1.5988   0.0000   0.0000   0.0000   0.1370
  -4.000  -0.2891   0.06725   0.06220  -0.0375  1.0000  0.1337  -1.5520   0.0000   0.0000   0.0000   0.1179
  -3.500  -0.2466   0.06069   0.05558  -0.0447  1.0000  0.1558  -1.5094   0.0000   0.0000   0.0000   0.0664
  -3.000  -0.0745   0.03834   0.03138  -0.0844  1.0000  0.0654  -2.1239   0.0000   0.0000   0.0000  -0.8933
  -2.500   0.0193   0.03058   0.02233  -0.0951  1.0000  0.0642  -2.0724   0.0000   0.0000   0.0000   5.2102
  -2.000   0.0974   0.02651   0.01720  -0.1003  1.0000  0.0738  -1.9479   0.0000   0.0000   0.0000   1.2855
  -1.500   0.1702   0.02508   0.01541  -0.1046  0.9968  0.1179  -1.6896   0.0000   0.0000   0.0000   0.8671
  -1.000   0.2650   0.02365   0.01394  -0.1123  0.9854  0.1842  -1.3036   0.0000   0.0000   0.0000   0.6748
  -0.500   0.3572   0.02250   0.01344  -0.1200  0.9718  0.3817  -0.9384   0.0000   0.0000   0.0000   0.5861
   0.000   0.4261   0.02110   0.01312  -0.1217  0.9517  1.0000  -0.6252   0.0000   0.0000   0.0000   0.5352
   0.500   0.5090   0.02146   0.01297  -0.1270  0.9302  1.0000  -0.6060   0.0000   0.0000   0.0000   0.4986
   1.000   0.5842   0.02166   0.01289  -0.1305  0.9053  1.0000  -0.6665   0.0000   0.0000   0.0000   0.4719
   1.500   0.6601   0.02160   0.01270  -0.1336  0.8805  1.0000  -0.7345   0.0000   0.0000   0.0000   0.4505
   2.000   0.7383   0.02122   0.01227  -0.1365  0.8570  1.0000  -0.8157   0.0000   0.0000   0.0000   0.4325
   2.500   0.8102   0.02085   0.01195  -0.1380  0.8293  1.0000  -0.9092   0.0000   0.0000   0.0000   0.4174
   3.000   0.8847   0.02026   0.01144  -0.1393  0.8010  1.0000  -1.0263   0.0000   0.0000   0.0000   0.4042
   3.500   0.9516   0.01994   0.01125  -0.1393  0.7655  1.0000  -1.1758   0.0000   0.0000   0.0000   0.3926
   4.000   1.0188   0.01969   0.01114  -0.1392  0.7267  1.0000  -1.3712   0.0000   0.0000   0.0000   0.3823
   4.500   1.0770   0.01989   0.01143  -0.1376  0.6803  1.0000  -1.6789   0.0000   0.0000   0.0000   0.3729
   5.000   1.1321   0.02028   0.01194  -0.1354  0.6293  1.0000  -2.0111   0.0000   0.0000   0.0000   0.3642
   5.500   1.1805   0.02097   0.01267  -0.1322  0.5721  1.0000  -2.3819   0.0000   0.0000   0.0000   0.3560
   6.000   1.2244   0.02186   0.01357  -0.1283  0.5087  1.0000  -2.7533   0.0000   0.0000   0.0000   0.3481
   6.500   1.2600   0.02302   0.01469  -0.1232  0.4328  1.0000  -3.1047   0.0000   0.0000   0.0000   0.3405
   7.000   1.2848   0.02463   0.01625  -0.1167  0.3359  1.0000  -3.4244   0.0000   0.0000   0.0000   0.3329
   7.500   1.2986   0.02745   0.01848  -0.1097  0.2192  1.0000  -3.7335   0.0000   0.0000   0.0000   0.3258
   8.000   1.3071   0.03149   0.02189  -0.1028  0.1282  1.0000  -3.9839   0.0000   0.0000   0.0000   0.3194
   8.500   1.3128   0.03591   0.02607  -0.0954  0.0893  1.0000  -4.1664   0.0000   0.0000   0.0000   0.3128
   9.000   1.3313   0.04040   0.03062  -0.0896  0.0708  1.0000  -4.3663   0.0000   0.0000   0.0000   0.3067
   9.500   1.3668   0.04541   0.03569  -0.0863  0.0593  1.0000  -4.6589   0.0000   0.0000   0.0000   0.3019
  10.000   1.3934   0.05055   0.04142  -0.0823  0.0516  1.0000  -4.9768   0.0000   0.0000   0.0000   0.2971
  10.500   1.4133   0.05769   0.04932  -0.0782  0.0488  1.0000  -5.1913   0.0000   0.0000   0.0000   0.2927
  11.000   1.4011   0.06503   0.05749  -0.0719  0.0478  1.0000  -5.2265   0.0000   0.0000   0.0000   0.2881
  11.500   1.3726   0.07320   0.06637  -0.0670  0.0474  1.0000  -5.1849   0.0000   0.0000   0.0000   0.2848
  12.000   1.3344   0.08287   0.07663  -0.0652  0.0474  1.0000  -5.0809   0.0000   0.0000   0.0000   0.2842
  12.500   1.2906   0.09468   0.08894  -0.0677  0.0478  1.0000  -4.9168   0.0000   0.0000   0.0000   0.2871
  13.000   1.2450   0.10919   0.10382  -0.0750  0.0484  1.0000  -4.6842   0.0000   0.0000   0.0000   0.2942
  13.500   1.2027   0.12641   0.12119  -0.0861  0.0493  1.0000  -4.3786   0.0000   0.0000   0.0000   0.3050
  14.000   1.1733   0.14420   0.13907  -0.0977  0.0501  1.0000  -4.0607   0.0000   0.0000   0.0000   0.3162
  14.500   0.9132   0.15815   0.15322  -0.0872  0.0586  1.0000  -2.6214   0.0000   0.0000   0.0000   0.3301
  15.000   0.8989   0.16811   0.16318  -0.0909  0.0593  1.0000  -2.4526   0.0000   0.0000   0.0000   0.3354
  15.500   0.8692   0.18242   0.17744  -0.0984  0.0654  1.0000  -2.0044   0.0000   0.0000   0.0000   0.3477
  16.000   0.8754   0.18994   0.18501  -0.0993  0.0691  1.0000  -2.0166   0.0000   0.0000   0.0000   0.3473
  16.500   0.8463   0.20462   0.19972  -0.1082  0.1139  1.0000  -1.5052   0.0000   0.0000   0.0000   0.3620
  17.000   0.8543   0.21178   0.20693  -0.1092  0.1111  1.0000  -1.5287   0.0000   0.0000   0.0000   0.3614
  17.500   0.8527   0.21866   0.21382  -0.1118  0.1092  1.0000  -1.4761   0.0000   0.0000   0.0000   0.3641
  18.000   0.8497   0.22443   0.21961  -0.1147  0.1031  1.0000  -1.4178   0.0000   0.0000   0.0000   0.3673
  18.500   0.8532   0.23119   0.22640  -0.1165  0.0979  1.0000  -1.3991   0.0000   0.0000   0.0000   0.3682
  19.000   0.8705   0.23981   0.23508  -0.1162  0.0896  1.0000  -1.5011   0.0000   0.0000   0.0000   0.3643
  19.500   0.8576   0.24415   0.23941  -0.1210  0.0868  1.0000  -1.3684   0.0000   0.0000   0.0000   0.3713
  20.000   0.8628   0.25067   0.24598  -0.1227  0.0813  1.0000  -1.3948   0.0000   0.0000   0.0000   0.3716


