xflr5 v6.61

 Calculated polar for: BLD_50

 1 1 Reynolds number fixed          Mach number fixed         

 xtrf =   1.000 (top)        1.000 (bottom)
 Mach =   0.200     Re =     0.070 e 6     Ncrit =   9.000

  alpha     CL        CD       CDp       Cm    Top Xtr Bot Xtr   Cpmin    Chinge    XCp    
 ------- -------- --------- --------- -------- ------- ------- -------- --------- ---------
 -23.000  -0.7291   0.28458   0.27750   0.0387  1.0000  0.0288  -1.5887   0.0000   0.0000   0.0000   0.2888
 -22.500  -0.7109   0.27473   0.26763   0.0360  1.0000  0.0298  -1.4860   0.0000   0.0000   0.0000   0.2869
 -22.000  -0.6938   0.26857   0.26146   0.0324  1.0000  0.0313  -1.4239   0.0000   0.0000   0.0000   0.2834
 -21.500  -0.6767   0.26287   0.25572   0.0286  1.0000  0.0330  -1.3857   0.0000   0.0000   0.0000   0.2794
 -21.000  -0.6596   0.25725   0.25011   0.0247  1.0000  0.0347  -1.3919   0.0000   0.0000   0.0000   0.2751
 -20.500  -0.6425   0.25194   0.24480   0.0207  1.0000  0.0362  -1.4130   0.0000   0.0000   0.0000   0.2703
 -20.000  -0.6262   0.24804   0.24091   0.0162  1.0000  0.0371  -1.4630   0.0000   0.0000   0.0000   0.2644
 -19.500  -0.6130   0.24637   0.23928   0.0113  1.0000  0.0374  -1.5379   0.0000   0.0000   0.0000   0.2575
 -19.000  -0.5928   0.23547   0.22839   0.0093  1.0000  0.0383  -1.4753   0.0000   0.0000   0.0000   0.2550
 -18.500  -0.5750   0.22831   0.22120   0.0068  1.0000  0.0399  -1.4222   0.0000   0.0000   0.0000   0.2515
 -18.000  -0.5581   0.22240   0.21530   0.0037  1.0000  0.0419  -1.4007   0.0000   0.0000   0.0000   0.2467
 -17.500  -0.5418   0.21681   0.20973   0.0005  1.0000  0.0439  -1.3935   0.0000   0.0000   0.0000   0.2413
 -17.000  -0.5273   0.21272   0.20568  -0.0033  1.0000  0.0456  -1.4197   0.0000   0.0000   0.0000   0.2344
 -16.500  -0.5192   0.21207   0.20508  -0.0079  1.0000  0.0461  -1.4924   0.0000   0.0000   0.0000   0.2260
 -16.000  -0.4952   0.19933   0.19235  -0.0082  1.0000  0.0482  -1.3540   0.0000   0.0000   0.0000   0.2246
 -15.500  -0.4792   0.19317   0.18621  -0.0103  1.0000  0.0512  -1.3022   0.0000   0.0000   0.0000   0.2199
 -15.000  -0.4653   0.18783   0.18088  -0.0130  1.0000  0.0541  -1.2863   0.0000   0.0000   0.0000   0.2138
 -14.500  -0.4570   0.18513   0.17823  -0.0167  1.0000  0.0556  -1.3582   0.0000   0.0000   0.0000   0.2055
 -14.000  -0.4415   0.17724   0.17041  -0.0183  1.0000  0.0568  -1.3564   0.0000   0.0000   0.0000   0.2009
 -13.500  -0.4246   0.16974   0.16293  -0.0190  1.0000  0.0598  -1.3110   0.0000   0.0000   0.0000   0.1976
 -13.000  -0.4125   0.16414   0.15738  -0.0208  1.0000  0.0633  -1.3257   0.0000   0.0000   0.0000   0.1922
 -12.500  -0.4082   0.16105   0.15436  -0.0239  1.0000  0.0655  -1.4099   0.0000   0.0000   0.0000   0.1845
 -12.000  -0.3934   0.15310   0.14648  -0.0245  1.0000  0.0673  -1.3893   0.0000   0.0000   0.0000   0.1808
 -11.500  -0.3798   0.14656   0.13998  -0.0249  1.0000  0.0711  -1.3555   0.0000   0.0000   0.0000   0.1776
 -11.000  -0.3751   0.14241   0.13592  -0.0270  1.0000  0.0749  -1.4037   0.0000   0.0000   0.0000   0.1716
 -10.000  -0.3542   0.12979   0.12340  -0.0277  1.0000  0.0827  -1.3626   0.0000   0.0000   0.0000   0.1659
  -9.750  -0.2915   0.12418   0.11830  -0.0302  1.0000  0.0889  -1.1923   0.0000   0.0000   0.0000   0.1420
  -9.500  -0.3615   0.12773   0.12151  -0.0301  1.0000  0.0862  -1.4591   0.0000   0.0000   0.0000   0.1613
  -9.250  -0.2874   0.11882   0.11302  -0.0298  1.0000  0.0947  -1.1798   0.0000   0.0000   0.0000   0.1423
  -9.000  -0.3421   0.11904   0.11287  -0.0283  1.0000  0.0914  -1.3573   0.0000   0.0000   0.0000   0.1618
  -8.750  -0.3060   0.11696   0.11134  -0.0310  1.0000  0.0971  -1.2924   0.0000   0.0000   0.0000   0.1454
  -8.500  -0.3478   0.11594   0.10993  -0.0292  1.0000  0.0965  -1.4122   0.0000   0.0000   0.0000   0.1613
  -8.250  -0.2843   0.10786   0.10230  -0.0281  1.0000  0.1034  -1.1691   0.0000   0.0000   0.0000   0.1477
  -8.000  -0.3391   0.10929   0.10340  -0.0276  1.0000  0.1002  -1.3663   0.0000   0.0000   0.0000   0.1639
  -7.750  -0.3036   0.10547   0.10010  -0.0276  1.0000  0.1074  -1.2529   0.0000   0.0000   0.0000   0.1561
  -7.500  -0.3442   0.10549   0.09976  -0.0262  1.0000  0.1061  -1.3757   0.0000   0.0000   0.0000   0.1698
  -7.250  -0.2922   0.09800   0.09273  -0.0246  1.0000  0.1129  -1.1957   0.0000   0.0000   0.0000   0.1632
  -6.750  -0.3532   0.09877   0.09330  -0.0218  1.0000  0.1120  -1.3864   0.0000   0.0000   0.0000   0.1849
  -6.500  -0.3566   0.09683   0.09144  -0.0210  1.0000  0.1155  -1.4018   0.0000   0.0000   0.0000   0.1880
  -6.250  -0.3656   0.09592   0.09066  -0.0239  1.0000  0.1183  -1.4745   0.0000   0.0000   0.0000   0.1819
  -6.000  -0.3621   0.09235   0.08716  -0.0221  1.0000  0.1203  -1.4613   0.0000   0.0000   0.0000   0.1864
  -5.750  -0.3580   0.08953   0.08438  -0.0202  1.0000  0.1243  -1.4397   0.0000   0.0000   0.0000   0.1909
  -5.500  -0.3568   0.08791   0.08283  -0.0274  1.0000  0.1293  -1.5229   0.0000   0.0000   0.0000   0.1708
  -5.250  -0.3529   0.08425   0.07923  -0.0233  1.0000  0.1318  -1.4820   0.0000   0.0000   0.0000   0.1816
  -5.000  -0.3467   0.08158   0.07660  -0.0238  1.0000  0.1377  -1.4772   0.0000   0.0000   0.0000   0.1790
  -4.750  -0.3379   0.07839   0.07340  -0.0270  1.0000  0.1424  -1.4978   0.0000   0.0000   0.0000   0.1678
  -4.500  -0.3191   0.07534   0.07031  -0.0348  1.0000  0.1515  -1.5350   0.0000   0.0000   0.0000   0.1388
  -4.250  -0.3169   0.07238   0.06744  -0.0294  1.0000  0.1560  -1.4767   0.0000   0.0000   0.0000   0.1552
  -4.000  -0.3024   0.06929   0.06435  -0.0319  1.0000  0.1668  -1.4652   0.0000   0.0000   0.0000   0.1424
  -3.750  -0.2850   0.06627   0.06132  -0.0348  1.0000  0.1809  -1.4471   0.0000   0.0000   0.0000   0.1258
  -3.500  -0.2606   0.06280   0.05780  -0.0402  1.0000  0.1967  -1.4367   0.0000   0.0000   0.0000   0.0936
  -3.250  -0.2423   0.05974   0.05474  -0.0415  1.0000  0.2093  -1.4024   0.0000   0.0000   0.0000   0.0766
  -2.500  -0.0265   0.03721   0.03018  -0.0868  1.0000  0.1069  -1.7293   0.0000   0.0000   0.0000  -3.0517
  -2.250   0.0324   0.03213   0.02413  -0.0941  1.0000  0.0964  -1.7680   0.0000   0.0000   0.0000   3.1723
  -2.000   0.0794   0.02910   0.02028  -0.0982  1.0000  0.0975  -1.7755   0.0000   0.0000   0.0000   1.4937
  -1.750   0.1104   0.02798   0.01912  -0.0996  1.0000  0.1124  -1.6768   0.0000   0.0000   0.0000   1.1570
  -1.500   0.1455   0.02677   0.01763  -0.1014  1.0000  0.1340  -1.6123   0.0000   0.0000   0.0000   0.9499
  -1.250   0.1775   0.02597   0.01664  -0.1026  1.0000  0.1592  -1.5161   0.0000   0.0000   0.0000   0.8300
  -1.000   0.2090   0.02536   0.01592  -0.1037  1.0000  0.1857  -1.3928   0.0000   0.0000   0.0000   0.7477
  -0.750   0.2402   0.02487   0.01546  -0.1048  1.0000  0.2186  -1.2537   0.0000   0.0000   0.0000   0.6872
  -0.500   0.2713   0.02455   0.01528  -0.1060  1.0000  0.2751  -1.1306   0.0000   0.0000   0.0000   0.6411
  -0.250   0.3072   0.02404   0.01519  -0.1080  1.0000  0.3903  -0.9915   0.0000   0.0000   0.0000   0.6016
   0.000   0.3216   0.02242   0.01527  -0.1051  1.0000  1.0000  -0.9020   0.0000   0.0000   0.0000   0.5767
   0.250   0.3658   0.02329   0.01554  -0.1092  0.9912  1.0000  -0.7277   0.0000   0.0000   0.0000   0.5479
   0.500   0.4184   0.02408   0.01597  -0.1147  0.9790  1.0000  -0.5454   0.0000   0.0000   0.0000   0.5231
   0.750   0.4641   0.02469   0.01632  -0.1188  0.9644  1.0000  -0.5770   0.0000   0.0000   0.0000   0.5047
   1.000   0.5127   0.02519   0.01664  -0.1232  0.9512  1.0000  -0.6123   0.0000   0.0000   0.0000   0.4888
   1.250   0.5552   0.02558   0.01691  -0.1263  0.9359  1.0000  -0.6455   0.0000   0.0000   0.0000   0.4758
   1.500   0.5998   0.02586   0.01710  -0.1296  0.9216  1.0000  -0.6823   0.0000   0.0000   0.0000   0.4642
   1.750   0.6452   0.02601   0.01720  -0.1328  0.9079  1.0000  -0.7226   0.0000   0.0000   0.0000   0.4537
   2.000   0.6827   0.02618   0.01734  -0.1345  0.8914  1.0000  -0.7605   0.0000   0.0000   0.0000   0.4446
   2.250   0.7279   0.02609   0.01726  -0.1372  0.8780  1.0000  -0.8072   0.0000   0.0000   0.0000   0.4359
   2.500   0.7643   0.02610   0.01731  -0.1383  0.8617  1.0000  -0.8522   0.0000   0.0000   0.0000   0.4281
   2.750   0.8068   0.02579   0.01706  -0.1400  0.8477  1.0000  -0.9098   0.0000   0.0000   0.0000   0.4205
   3.000   0.8530   0.02521   0.01655  -0.1421  0.8350  1.0000  -0.9755   0.0000   0.0000   0.0000   0.4133
   3.250   0.8885   0.02496   0.01642  -0.1423  0.8182  1.0000  -1.0385   0.0000   0.0000   0.0000   0.4067
   3.500   0.9315   0.02430   0.01585  -0.1434  0.8040  1.0000  -1.1237   0.0000   0.0000   0.0000   0.4002
   3.750   0.9679   0.02389   0.01555  -0.1435  0.7867  1.0000  -1.2217   0.0000   0.0000   0.0000   0.3943
   4.000   1.0104   0.02316   0.01496  -0.1442  0.7705  1.0000  -1.3328   0.0000   0.0000   0.0000   0.3885
   4.250   1.0447   0.02281   0.01471  -0.1437  0.7502  1.0000  -1.4850   0.0000   0.0000   0.0000   0.3831
   4.500   1.0792   0.02245   0.01445  -0.1431  0.7286  1.0000  -1.6566   0.0000   0.0000   0.0000   0.3779
   4.750   1.1133   0.02215   0.01420  -0.1424  0.7054  1.0000  -1.8332   0.0000   0.0000   0.0000   0.3729
   5.000   1.1410   0.02216   0.01436  -0.1409  0.6786  1.0000  -2.0098   0.0000   0.0000   0.0000   0.3682
   5.250   1.1713   0.02208   0.01430  -0.1396  0.6511  1.0000  -2.2170   0.0000   0.0000   0.0000   0.3635
   5.500   1.1963   0.02228   0.01453  -0.1376  0.6207  1.0000  -2.4086   0.0000   0.0000   0.0000   0.3591
   5.750   1.2207   0.02250   0.01477  -0.1355  0.5884  1.0000  -2.6034   0.0000   0.0000   0.0000   0.3548
   6.000   1.2439   0.02278   0.01502  -0.1332  0.5536  1.0000  -2.7980   0.0000   0.0000   0.0000   0.3505
   6.250   1.2631   0.02318   0.01542  -0.1304  0.5150  1.0000  -2.9795   0.0000   0.0000   0.0000   0.3464
   6.500   1.2798   0.02361   0.01579  -0.1272  0.4716  1.0000  -3.1545   0.0000   0.0000   0.0000   0.3421
   6.750   1.2930   0.02416   0.01622  -0.1235  0.4235  1.0000  -3.3162   0.0000   0.0000   0.0000   0.3379
   7.000   1.3023   0.02492   0.01698  -0.1194  0.3696  1.0000  -3.4749   0.0000   0.0000   0.0000   0.3337
   7.250   1.3071   0.02603   0.01781  -0.1149  0.3083  1.0000  -3.6190   0.0000   0.0000   0.0000   0.3296
   7.500   1.3082   0.02768   0.01903  -0.1104  0.2444  1.0000  -3.7387   0.0000   0.0000   0.0000   0.3257
   7.750   1.3091   0.02985   0.02077  -0.1061  0.1883  1.0000  -3.8373   0.0000   0.0000   0.0000   0.3221
   8.000   1.3117   0.03228   0.02284  -0.1022  0.1466  1.0000  -3.9214   0.0000   0.0000   0.0000   0.3186
   8.250   1.3199   0.03494   0.02519  -0.0989  0.1196  1.0000  -4.0027   0.0000   0.0000   0.0000   0.3153
   8.500   1.3384   0.03771   0.02782  -0.0969  0.1011  1.0000  -4.1033   0.0000   0.0000   0.0000   0.3125
   8.750   1.3705   0.04108   0.03103  -0.0969  0.0895  1.0000  -4.2444   0.0000   0.0000   0.0000   0.3104
   9.000   1.3920   0.04386   0.03420  -0.0953  0.0822  1.0000  -4.3462   0.0000   0.0000   0.0000   0.3078
   9.250   1.4084   0.04683   0.03744  -0.0935  0.0759  1.0000  -4.4946   0.0000   0.0000   0.0000   0.3054
   9.500   1.4266   0.05006   0.04094  -0.0919  0.0719  1.0000  -4.6447   0.0000   0.0000   0.0000   0.3032
   9.750   1.4480   0.05451   0.04552  -0.0912  0.0694  1.0000  -4.8008   0.0000   0.0000   0.0000   0.3014
  10.000   1.4502   0.05831   0.04986  -0.0878  0.0688  1.0000  -4.8366   0.0000   0.0000   0.0000   0.2987
  10.250   1.4473   0.06223   0.05437  -0.0842  0.0684  1.0000  -4.8517   0.0000   0.0000   0.0000   0.2960
  10.500   1.4399   0.06622   0.05881  -0.0805  0.0684  1.0000  -4.8516   0.0000   0.0000   0.0000   0.2934
  10.750   1.4280   0.07014   0.06308  -0.0767  0.0684  1.0000  -4.8385   0.0000   0.0000   0.0000   0.2909
  11.000   1.4129   0.07404   0.06729  -0.0730  0.0686  1.0000  -4.8160   0.0000   0.0000   0.0000   0.2886
  11.250   1.3963   0.07817   0.07169  -0.0699  0.0688  1.0000  -4.7869   0.0000   0.0000   0.0000   0.2867
  11.500   1.3793   0.08261   0.07637  -0.0675  0.0691  1.0000  -4.7538   0.0000   0.0000   0.0000   0.2853
  11.750   1.3635   0.08749   0.08144  -0.0661  0.0694  1.0000  -4.7212   0.0000   0.0000   0.0000   0.2845
  12.000   1.3123   0.09251   0.08693  -0.0661  0.0705  1.0000  -4.5058   0.0000   0.0000   0.0000   0.2860
  12.250   1.2610   0.10129   0.09597  -0.0707  0.0723  1.0000  -4.2319   0.0000   0.0000   0.0000   0.2914
  12.500   1.2175   0.11215   0.10703  -0.0781  0.0743  1.0000  -3.9585   0.0000   0.0000   0.0000   0.2993
  12.750   1.1841   0.12381   0.11877  -0.0864  0.0764  1.0000  -3.6996   0.0000   0.0000   0.0000   0.3080
  13.000   1.1660   0.13371   0.12867  -0.0925  0.0780  1.0000  -3.5253   0.0000   0.0000   0.0000   0.3142
  13.250   1.1606   0.14091   0.13587  -0.0957  0.0791  1.0000  -3.4562   0.0000   0.0000   0.0000   0.3171
  16.500   1.1498   0.23324   0.22796  -0.1543  0.1322  1.0000  -2.0805   0.0000   0.0000   0.0000   0.3659
  17.000   1.1600   0.24014   0.23484  -0.1595  0.1228  1.0000  -2.0581   0.0000   0.0000   0.0000   0.3684
  17.500   1.1719   0.24730   0.24199  -0.1647  0.1144  1.0000  -2.0341   0.0000   0.0000   0.0000   0.3706
  18.000   1.1913   0.25615   0.25085  -0.1675  0.1093  1.0000  -2.1114   0.0000   0.0000   0.0000   0.3698
  18.500   1.2041   0.26239   0.25711  -0.1729  0.1016  1.0000  -2.1280   0.0000   0.0000   0.0000   0.3719
  19.000   1.2172   0.26963   0.26433  -0.1787  0.0974  1.0000  -2.1220   0.0000   0.0000   0.0000   0.3741
  19.500   1.2365   0.27752   0.27234  -0.1817  0.0907  1.0000  -2.2017   0.0000   0.0000   0.0000   0.3733
  20.000   1.2478   0.28366   0.27845  -0.1887  0.0864  1.0000  -2.1493   0.0000   0.0000   0.0000   0.3766


