xflr5 v6.61

 Calculated polar for: BLD_0

 1 1 Reynolds number fixed          Mach number fixed         

 xtrf =   1.000 (top)        1.000 (bottom)
 Mach =   0.200     Re =     0.100 e 6     Ncrit =   9.000

  alpha     CL        CD       CDp       Cm    Top Xtr Bot Xtr   Cpmin    Chinge    XCp    
 ------- -------- --------- --------- -------- ------- ------- -------- --------- ---------
 -14.000  -0.4274   0.17929   0.17359  -0.0176  1.0000  0.0389  -1.3506   0.0000   0.0000   0.0000   0.2005
 -13.500  -0.4145   0.17339   0.16768  -0.0185  1.0000  0.0405  -1.3193   0.0000   0.0000   0.0000   0.1972
 -13.000  -0.4028   0.16780   0.16214  -0.0196  1.0000  0.0423  -1.3097   0.0000   0.0000   0.0000   0.1933
 -12.500  -0.3925   0.16252   0.15690  -0.0210  1.0000  0.0443  -1.3197   0.0000   0.0000   0.0000   0.1889
 -12.000  -0.3874   0.15904   0.15350  -0.0233  1.0000  0.0456  -1.3868   0.0000   0.0000   0.0000   0.1827
 -11.500  -0.3902   0.15726   0.15181  -0.0258  1.0000  0.0460  -1.4862   0.0000   0.0000   0.0000   0.1771
 -11.000  -0.3662   0.14592   0.14051  -0.0238  1.0000  0.0475  -1.3326   0.0000   0.0000   0.0000   0.1780
 -10.500  -0.3554   0.14005   0.13469  -0.0235  1.0000  0.0496  -1.2742   0.0000   0.0000   0.0000   0.1771
 -10.000  -0.3476   0.13482   0.12953  -0.0237  1.0000  0.0522  -1.2528   0.0000   0.0000   0.0000   0.1754
  -9.750  -0.3449   0.13240   0.12715  -0.0239  1.0000  0.0535  -1.2549   0.0000   0.0000   0.0000   0.1743
  -9.500  -0.3443   0.13051   0.12531  -0.0245  1.0000  0.0548  -1.2779   0.0000   0.0000   0.0000   0.1728
  -9.250  -0.3476   0.12943   0.12430  -0.0254  1.0000  0.0554  -1.3374   0.0000   0.0000   0.0000   0.1713
  -9.000  -0.3536   0.12869   0.12364  -0.0262  1.0000  0.0557  -1.4058   0.0000   0.0000   0.0000   0.1707
  -8.750  -0.3605   0.12789   0.12291  -0.0268  1.0000  0.0558  -1.4742   0.0000   0.0000   0.0000   0.1708
  -8.500  -0.3383   0.12026   0.11523  -0.0241  1.0000  0.0571  -1.3489   0.0000   0.0000   0.0000   0.1735
  -8.250  -0.3325   0.11721   0.11221  -0.0230  1.0000  0.0586  -1.3137   0.0000   0.0000   0.0000   0.1757
  -8.000  -0.3302   0.11481   0.10986  -0.0222  1.0000  0.0604  -1.3075   0.0000   0.0000   0.0000   0.1776
  -7.750  -0.3301   0.11269   0.10780  -0.0217  1.0000  0.0625  -1.3195   0.0000   0.0000   0.0000   0.1795
  -7.500  -0.3340   0.11113   0.10631  -0.0214  1.0000  0.0644  -1.3582   0.0000   0.0000   0.0000   0.1814
  -7.250  -0.3447   0.11055   0.10582  -0.0211  1.0000  0.0653  -1.4270   0.0000   0.0000   0.0000   0.1847
  -7.000  -0.3594   0.11029   0.10566  -0.0200  1.0000  0.0656  -1.4969   0.0000   0.0000   0.0000   0.1906
  -6.750  -0.3731   0.10979   0.10526  -0.0197  1.0000  0.0658  -1.5708   0.0000   0.0000   0.0000   0.1938
  -6.500  -0.3438   0.10262   0.09806  -0.0164  1.0000  0.0690  -1.4037   0.0000   0.0000   0.0000   0.1985
  -6.250  -0.3484   0.10090   0.09641  -0.0146  1.0000  0.0708  -1.4085   0.0000   0.0000   0.0000   0.2048
  -6.000  -0.3559   0.09941   0.09500  -0.0129  1.0000  0.0726  -1.4305   0.0000   0.0000   0.0000   0.2106
  -5.750  -0.3617   0.09797   0.09364  -0.0138  1.0000  0.0746  -1.4848   0.0000   0.0000   0.0000   0.2088
  -5.500  -0.3631   0.09671   0.09246  -0.0218  1.0000  0.0756  -1.6218   0.0000   0.0000   0.0000   0.1872
  -5.250  -0.3610   0.09280   0.08861  -0.0175  1.0000  0.0766  -1.5713   0.0000   0.0000   0.0000   0.1988
  -5.000  -0.3574   0.08992   0.08576  -0.0141  1.0000  0.0784  -1.5141   0.0000   0.0000   0.0000   0.2081
  -4.750  -0.3530   0.08738   0.08327  -0.0140  1.0000  0.0809  -1.5020   0.0000   0.0000   0.0000   0.2079
  -4.500  -0.3435   0.08459   0.08051  -0.0185  1.0000  0.0849  -1.5405   0.0000   0.0000   0.0000   0.1937
  -4.250  -0.3257   0.08061   0.07655  -0.0267  1.0000  0.0873  -1.6108   0.0000   0.0000   0.0000   0.1655
  -4.000  -0.3226   0.07806   0.07404  -0.0231  1.0000  0.0893  -1.5505   0.0000   0.0000   0.0000   0.1760
  -3.750  -0.2762   0.07306   0.06893  -0.0411  1.0000  0.0973  -1.6530   0.0000   0.0000   0.0000   0.0986
  -3.500  -0.2774   0.07053   0.06649  -0.0353  1.0000  0.0987  -1.5767   0.0000   0.0000   0.0000   0.1200
  -3.250  -0.2303   0.06574   0.06152  -0.0490  1.0000  0.1082  -1.6093   0.0000   0.0000   0.0000   0.0344
  -3.000  -0.2268   0.06339   0.05925  -0.0448  1.0000  0.1101  -1.5335   0.0000   0.0000   0.0000   0.0494
  -2.750  -0.1837   0.05901   0.05476  -0.0546  1.0000  0.1201  -1.5215   0.0000   0.0000   0.0000  -0.0508
  -2.500  -0.1438   0.05516   0.05080  -0.0622  1.0000  0.1307  -1.4854   0.0000   0.0000   0.0000  -0.1866
  -2.000   0.0640   0.03481   0.02857  -0.1047  1.0000  0.0752  -1.8530   0.0000   0.0000   0.0000   1.8945
  -1.750   0.1283   0.03009   0.02307  -0.1130  1.0000  0.0682  -1.8505   0.0000   0.0000   0.0000   1.1351
  -1.500   0.1785   0.02763   0.01986  -0.1175  1.0000  0.0679  -1.8475   0.0000   0.0000   0.0000   0.9112
  -1.250   0.2159   0.02645   0.01833  -0.1194  1.0000  0.0722  -1.7792   0.0000   0.0000   0.0000   0.8054
  -1.000   0.2561   0.02545   0.01707  -0.1217  0.9992  0.0846  -1.7118   0.0000   0.0000   0.0000   0.7267
  -0.750   0.3081   0.02483   0.01641  -0.1262  0.9942  0.1181  -1.5605   0.0000   0.0000   0.0000   0.6603
  -0.500   0.3590   0.02472   0.01652  -0.1308  0.9882  0.1787  -1.3281   0.0000   0.0000   0.0000   0.6148
  -0.250   0.4072   0.02469   0.01679  -0.1353  0.9800  0.2808  -1.0810   0.0000   0.0000   0.0000   0.5821
   0.000   0.4543   0.02441   0.01695  -0.1392  0.9718  0.4058  -0.8903   0.0000   0.0000   0.0000   0.5559
   0.250   0.4965   0.02371   0.01712  -0.1415  0.9638  0.6569  -0.7134   0.0000   0.0000   0.0000   0.5343
   0.500   0.5298   0.02311   0.01674  -0.1418  0.9521  1.0000  -0.6222   0.0000   0.0000   0.0000   0.5166
   0.750   0.5762   0.02320   0.01657  -0.1452  0.9416  1.0000  -0.6650   0.0000   0.0000   0.0000   0.5007
   1.000   0.6218   0.02319   0.01637  -0.1484  0.9310  1.0000  -0.7101   0.0000   0.0000   0.0000   0.4870
   1.250   0.6618   0.02310   0.01616  -0.1504  0.9179  1.0000  -0.7523   0.0000   0.0000   0.0000   0.4753
   1.500   0.7044   0.02288   0.01585  -0.1527  0.9054  1.0000  -0.7997   0.0000   0.0000   0.0000   0.4645
   1.750   0.7485   0.02251   0.01541  -0.1550  0.8933  1.0000  -0.8544   0.0000   0.0000   0.0000   0.4546
   2.000   0.7933   0.02200   0.01487  -0.1572  0.8815  1.0000  -0.9151   0.0000   0.0000   0.0000   0.4455
   2.250   0.8383   0.02136   0.01423  -0.1593  0.8699  1.0000  -0.9796   0.0000   0.0000   0.0000   0.4371
   2.500   0.8837   0.02055   0.01346  -0.1613  0.8584  1.0000  -1.0459   0.0000   0.0000   0.0000   0.4293
   2.750   0.9303   0.01958   0.01251  -0.1632  0.8468  1.0000  -1.1202   0.0000   0.0000   0.0000   0.4219
   3.000   0.9709   0.01880   0.01178  -0.1641  0.8300  1.0000  -1.1932   0.0000   0.0000   0.0000   0.4153
   3.250   1.0229   0.01772   0.01078  -0.1669  0.8143  1.0000  -1.2853   0.0000   0.0000   0.0000   0.4091
   3.500   1.0690   0.01701   0.01010  -0.1688  0.7907  1.0000  -1.3739   0.0000   0.0000   0.0000   0.4036
   3.750   1.1153   0.01643   0.00951  -0.1708  0.7604  1.0000  -1.4708   0.0000   0.0000   0.0000   0.3985
   4.000   1.1546   0.01622   0.00926  -0.1716  0.7213  1.0000  -1.5849   0.0000   0.0000   0.0000   0.3937
   4.250   1.1897   0.01630   0.00918  -0.1718  0.6772  1.0000  -1.6939   0.0000   0.0000   0.0000   0.3891
   4.500   1.2188   0.01664   0.00931  -0.1709  0.6312  1.0000  -1.7936   0.0000   0.0000   0.0000   0.3847
   4.750   1.2438   0.01717   0.00961  -0.1694  0.5855  1.0000  -1.8869   0.0000   0.0000   0.0000   0.3803
   5.000   1.2658   0.01783   0.01010  -0.1676  0.5415  1.0000  -1.9756   0.0000   0.0000   0.0000   0.3762
   5.250   1.2861   0.01856   0.01062  -0.1655  0.4994  1.0000  -2.1034   0.0000   0.0000   0.0000   0.3721
   5.500   1.3057   0.01936   0.01123  -0.1633  0.4600  1.0000  -2.2458   0.0000   0.0000   0.0000   0.3682
   5.750   1.3248   0.02022   0.01188  -0.1612  0.4236  1.0000  -2.3896   0.0000   0.0000   0.0000   0.3645
   6.000   1.3436   0.02112   0.01261  -0.1591  0.3898  1.0000  -2.5346   0.0000   0.0000   0.0000   0.3609
   6.250   1.3609   0.02201   0.01334  -0.1568  0.3568  1.0000  -2.6850   0.0000   0.0000   0.0000   0.3574
   6.500   1.3773   0.02289   0.01409  -0.1544  0.3254  1.0000  -2.8524   0.0000   0.0000   0.0000   0.3539
   6.750   1.3934   0.02378   0.01487  -0.1520  0.2967  1.0000  -3.0222   0.0000   0.0000   0.0000   0.3505
   7.000   1.4096   0.02469   0.01581  -0.1497  0.2708  1.0000  -3.1944   0.0000   0.0000   0.0000   0.3473
   7.250   1.4257   0.02563   0.01669  -0.1474  0.2478  1.0000  -3.3687   0.0000   0.0000   0.0000   0.3441
   7.500   1.4414   0.02659   0.01763  -0.1451  0.2263  1.0000  -3.5433   0.0000   0.0000   0.0000   0.3410
   7.750   1.4573   0.02759   0.01865  -0.1428  0.2068  1.0000  -3.7189   0.0000   0.0000   0.0000   0.3380
   8.000   1.4732   0.02869   0.01976  -0.1406  0.1903  1.0000  -3.8951   0.0000   0.0000   0.0000   0.3351
   8.250   1.4885   0.02984   0.02098  -0.1382  0.1745  1.0000  -4.0664   0.0000   0.0000   0.0000   0.3321
   8.500   1.5009   0.03105   0.02219  -0.1355  0.1594  1.0000  -4.2282   0.0000   0.0000   0.0000   0.3292
   8.750   1.5110   0.03225   0.02351  -0.1324  0.1427  1.0000  -4.3765   0.0000   0.0000   0.0000   0.3261
   9.000   1.5196   0.03373   0.02497  -0.1292  0.1281  1.0000  -4.5150   0.0000   0.0000   0.0000   0.3232
   9.250   1.5269   0.03536   0.02674  -0.1258  0.1118  1.0000  -4.6320   0.0000   0.0000   0.0000   0.3202
   9.500   1.5316   0.03722   0.02858  -0.1224  0.0980  1.0000  -4.7358   0.0000   0.0000   0.0000   0.3173
   9.750   1.5376   0.03950   0.03097  -0.1191  0.0858  1.0000  -4.8176   0.0000   0.0000   0.0000   0.3145
  10.000   1.5453   0.04198   0.03348  -0.1162  0.0760  1.0000  -4.8931   0.0000   0.0000   0.0000   0.3118
  10.250   1.5557   0.04454   0.03625  -0.1136  0.0687  1.0000  -4.9615   0.0000   0.0000   0.0000   0.3092
  10.500   1.5685   0.04750   0.03939  -0.1116  0.0638  1.0000  -5.0383   0.0000   0.0000   0.0000   0.3069
  10.750   1.5751   0.05000   0.04213  -0.1089  0.0597  1.0000  -5.1215   0.0000   0.0000   0.0000   0.3045
  11.000   1.5847   0.05291   0.04505  -0.1070  0.0562  1.0000  -5.2664   0.0000   0.0000   0.0000   0.3025
  11.250   1.5836   0.05604   0.04865  -0.1038  0.0542  1.0000  -5.3243   0.0000   0.0000   0.0000   0.3002
  11.500   1.5827   0.05960   0.05258  -0.1011  0.0527  1.0000  -5.3792   0.0000   0.0000   0.0000   0.2981
  11.750   1.5783   0.06337   0.05670  -0.0985  0.0517  1.0000  -5.4202   0.0000   0.0000   0.0000   0.2962
  12.000   1.5704   0.06738   0.06103  -0.0960  0.0510  1.0000  -5.4465   0.0000   0.0000   0.0000   0.2945
  12.250   1.5588   0.07173   0.06570  -0.0940  0.0504  1.0000  -5.4532   0.0000   0.0000   0.0000   0.2933
  12.500   1.5439   0.07651   0.07079  -0.0926  0.0501  1.0000  -5.4395   0.0000   0.0000   0.0000   0.2925
  12.750   1.5255   0.08182   0.07641  -0.0919  0.0500  1.0000  -5.4024   0.0000   0.0000   0.0000   0.2923
  13.000   1.5033   0.08785   0.08276  -0.0923  0.0500  1.0000  -5.3362   0.0000   0.0000   0.0000   0.2931
  13.250   1.4758   0.09499   0.09024  -0.0942  0.0503  1.0000  -5.2263   0.0000   0.0000   0.0000   0.2951
  13.500   1.4440   0.10353   0.09910  -0.0982  0.0508  1.0000  -5.0718   0.0000   0.0000   0.0000   0.2989
  13.750   1.4088   0.11389   0.10975  -0.1047  0.0516  1.0000  -4.8661   0.0000   0.0000   0.0000   0.3048
  14.000   1.3699   0.12677   0.12286  -0.1141  0.0528  1.0000  -4.5891   0.0000   0.0000   0.0000   0.3136
  14.250   1.3304   0.14213   0.13836  -0.1259  0.0544  1.0000  -4.2338   0.0000   0.0000   0.0000   0.3248
  14.500   1.3012   0.15674   0.15298  -0.1363  0.0557  1.0000  -3.8928   0.0000   0.0000   0.0000   0.3350
  14.750   1.2861   0.16799   0.16421  -0.1435  0.0564  1.0000  -3.6577   0.0000   0.0000   0.0000   0.3417


