xflr5 v6.61

 Calculated polar for: BLD_50

 1 1 Reynolds number fixed          Mach number fixed         

 xtrf =   1.000 (top)        1.000 (bottom)
 Mach =   0.200     Re =     0.125 e 6     Ncrit =   7.000

  alpha     CL        CD       CDp       Cm    Top Xtr Bot Xtr   Cpmin    Chinge    XCp    
 ------- -------- --------- --------- -------- ------- ------- -------- --------- ---------
 -20.500  -0.6377   0.25102   0.24564   0.0188  1.0000  0.0168  -1.5573   0.0000   0.0000   0.0000   0.2673
 -20.000  -0.6206   0.24372   0.23834   0.0162  1.0000  0.0174  -1.4749   0.0000   0.0000   0.0000   0.2644
 -19.500  -0.6037   0.23786   0.23248   0.0130  1.0000  0.0186  -1.4399   0.0000   0.0000   0.0000   0.2602
 -19.000  -0.5868   0.23204   0.22667   0.0096  1.0000  0.0201  -1.4361   0.0000   0.0000   0.0000   0.2555
 -18.500  -0.5699   0.22618   0.22079   0.0062  1.0000  0.0213  -1.4547   0.0000   0.0000   0.0000   0.2503
 -18.000  -0.5533   0.22073   0.21535   0.0025  1.0000  0.0220  -1.4994   0.0000   0.0000   0.0000   0.2443
 -17.500  -0.5384   0.21603   0.21068  -0.0014  1.0000  0.0222  -1.5579   0.0000   0.0000   0.0000   0.2375
 -17.000  -0.5254   0.21185   0.20653  -0.0053  1.0000  0.0224  -1.6149   0.0000   0.0000   0.0000   0.2303
 -16.500  -0.5066   0.20267   0.19738  -0.0065  1.0000  0.0228  -1.5083   0.0000   0.0000   0.0000   0.2277
 -16.000  -0.4907   0.19621   0.19093  -0.0084  1.0000  0.0237  -1.4264   0.0000   0.0000   0.0000   0.2237
 -15.500  -0.4756   0.19028   0.18502  -0.0107  1.0000  0.0247  -1.3797   0.0000   0.0000   0.0000   0.2187
 -15.000  -0.4611   0.18442   0.17915  -0.0130  1.0000  0.0259  -1.3485   0.0000   0.0000   0.0000   0.2132
 -14.500  -0.4474   0.17883   0.17360  -0.0156  1.0000  0.0273  -1.3442   0.0000   0.0000   0.0000   0.2069
 -14.000  -0.4383   0.17517   0.16998  -0.0191  1.0000  0.0282  -1.4597   0.0000   0.0000   0.0000   0.1983
 -13.500  -0.4352   0.17258   0.16745  -0.0227  1.0000  0.0284  -1.5934   0.0000   0.0000   0.0000   0.1903
 -13.000  -0.4107   0.16052   0.15541  -0.0211  1.0000  0.0301  -1.4182   0.0000   0.0000   0.0000   0.1908
 -12.500  -0.3982   0.15456   0.14949  -0.0222  1.0000  0.0321  -1.3929   0.0000   0.0000   0.0000   0.1867
 -12.000  -0.3872   0.14871   0.14367  -0.0236  1.0000  0.0338  -1.4069   0.0000   0.0000   0.0000   0.1818
 -11.500  -0.3775   0.14300   0.13801  -0.0252  1.0000  0.0358  -1.4440   0.0000   0.0000   0.0000   0.1763
 -11.000  -0.3725   0.13844   0.13352  -0.0276  1.0000  0.0370  -1.5455   0.0000   0.0000   0.0000   0.1691
 -10.500  -0.3733   0.13468   0.12986  -0.0303  1.0000  0.0374  -1.6681   0.0000   0.0000   0.0000   0.1627
 -10.000  -0.3623   0.12709   0.12230  -0.0302  1.0000  0.0379  -1.6513   0.0000   0.0000   0.0000   0.1604
  -9.500  -0.3468   0.11990   0.11515  -0.0286  1.0000  0.0396  -1.5173   0.0000   0.0000   0.0000   0.1615
  -9.000  -0.3402   0.11459   0.10991  -0.0285  1.0000  0.0416  -1.4912   0.0000   0.0000   0.0000   0.1606
  -8.500  -0.3375   0.10965   0.10507  -0.0285  1.0000  0.0439  -1.5054   0.0000   0.0000   0.0000   0.1604
  -8.000  -0.3471   0.10634   0.10191  -0.0289  1.0000  0.0456  -1.6176   0.0000   0.0000   0.0000   0.1620
  -6.500  -0.3665   0.09246   0.08843  -0.0204  1.0000  0.0485  -1.5949   0.0000   0.0000   0.0000   0.1913
  -6.000  -0.3679   0.08798   0.08406  -0.0192  1.0000  0.0516  -1.5693   0.0000   0.0000   0.0000   0.1951
  -5.500  -0.3549   0.08204   0.07818  -0.0327  1.0000  0.0558  -1.8072   0.0000   0.0000   0.0000   0.1552
  -5.000  -0.3496   0.07618   0.07243  -0.0271  0.9998  0.0584  -1.6816   0.0000   0.0000   0.0000   0.1701
  -4.500  -0.2578   0.06418   0.06018  -0.0533  0.9898  0.0669  -1.7770   0.0000   0.0000   0.0000   0.0400
  -3.000   0.0702   0.02500   0.01795  -0.1128  0.9757  0.0417  -2.3281   0.0000   0.0000   0.0000   1.8692
  -2.500   0.1640   0.02075   0.01253  -0.1200  0.9706  0.0463  -2.1158   0.0000   0.0000   0.0000   0.9868
  -2.000   0.2484   0.01869   0.01031  -0.1256  0.9617  0.0751  -1.7913   0.0000   0.0000   0.0000   0.7584
  -1.500   0.3295   0.01767   0.00944  -0.1308  0.9509  0.1327  -1.3379   0.0000   0.0000   0.0000   0.6484
  -1.000   0.4078   0.01662   0.00876  -0.1353  0.9387  0.2489  -0.9722   0.0000   0.0000   0.0000   0.5824
  -0.500   0.4821   0.01518   0.00850  -0.1389  0.9252  0.6015  -0.6260   0.0000   0.0000   0.0000   0.5380
   0.000   0.5435   0.01405   0.00772  -0.1381  0.9093  1.0000  -0.6215   0.0000   0.0000   0.0000   0.5034
   0.500   0.6145   0.01372   0.00715  -0.1400  0.8907  1.0000  -0.6790   0.0000   0.0000   0.0000   0.4768
   1.000   0.6856   0.01333   0.00660  -0.1419  0.8703  1.0000  -0.7428   0.0000   0.0000   0.0000   0.4554
   1.500   0.7564   0.01294   0.00611  -0.1435  0.8466  1.0000  -0.8151   0.0000   0.0000   0.0000   0.4377
   2.000   0.8237   0.01270   0.00581  -0.1445  0.8156  1.0000  -0.8970   0.0000   0.0000   0.0000   0.4229
   2.500   0.8886   0.01263   0.00565  -0.1449  0.7779  1.0000  -0.9978   0.0000   0.0000   0.0000   0.4101
   3.000   0.9487   0.01281   0.00574  -0.1445  0.7345  1.0000  -1.1166   0.0000   0.0000   0.0000   0.3989
   3.500   1.0046   0.01319   0.00600  -0.1433  0.6872  1.0000  -1.2853   0.0000   0.0000   0.0000   0.3887
   4.000   1.0573   0.01375   0.00645  -0.1416  0.6381  1.0000  -1.5160   0.0000   0.0000   0.0000   0.3795
   4.500   1.1070   0.01443   0.00701  -0.1394  0.5865  1.0000  -1.8095   0.0000   0.0000   0.0000   0.3709
   5.000   1.1545   0.01522   0.00778  -0.1368  0.5340  1.0000  -2.1564   0.0000   0.0000   0.0000   0.3629
   5.500   1.1992   0.01613   0.00861  -0.1338  0.4771  1.0000  -2.5244   0.0000   0.0000   0.0000   0.3554
   6.000   1.2363   0.01727   0.00950  -0.1296  0.3903  1.0000  -2.8817   0.0000   0.0000   0.0000   0.3480
   6.500   1.2685   0.01893   0.01071  -0.1250  0.2834  1.0000  -3.2292   0.0000   0.0000   0.0000   0.3411
   7.000   1.2985   0.02114   0.01258  -0.1204  0.1851  1.0000  -3.6026   0.0000   0.0000   0.0000   0.3347
   7.500   1.3228   0.02404   0.01502  -0.1153  0.0987  1.0000  -3.9583   0.0000   0.0000   0.0000   0.3284
   8.000   1.3388   0.02755   0.01835  -0.1086  0.0583  1.0000  -4.2172   0.0000   0.0000   0.0000   0.3218
   8.500   1.3539   0.03062   0.02157  -0.1019  0.0444  1.0000  -4.4861   0.0000   0.0000   0.0000   0.3153
   9.000   1.3655   0.03426   0.02538  -0.0952  0.0390  1.0000  -4.7302   0.0000   0.0000   0.0000   0.3091
   9.500   1.3862   0.03811   0.02953  -0.0899  0.0352  1.0000  -5.0465   0.0000   0.0000   0.0000   0.3035
  10.000   1.4109   0.04270   0.03443  -0.0856  0.0324  1.0000  -5.4132   0.0000   0.0000   0.0000   0.2986
  10.500   1.4321   0.04864   0.04090  -0.0814  0.0303  1.0000  -5.7055   0.0000   0.0000   0.0000   0.2940
  11.000   1.4305   0.05395   0.04691  -0.0754  0.0280  1.0000  -5.8946   0.0000   0.0000   0.0000   0.2892
  11.500   1.4180   0.06081   0.05441  -0.0703  0.0270  1.0000  -5.9837   0.0000   0.0000   0.0000   0.2853
  12.000   1.3931   0.06908   0.06331  -0.0670  0.0266  1.0000  -5.9790   0.0000   0.0000   0.0000   0.2830
  12.500   1.3589   0.07917   0.07397  -0.0666  0.0265  1.0000  -5.8936   0.0000   0.0000   0.0000   0.2832
  13.000   1.3181   0.09165   0.08696  -0.0702  0.0267  1.0000  -5.7251   0.0000   0.0000   0.0000   0.2866
  13.500   1.2729   0.10717   0.10293  -0.0785  0.0271  1.0000  -5.4587   0.0000   0.0000   0.0000   0.2943
  14.000   1.2245   0.12707   0.12319  -0.0920  0.0278  1.0000  -5.0385   0.0000   0.0000   0.0000   0.3073
  14.500   1.1763   0.15253   0.14879  -0.1098  0.0292  1.0000  -4.3518   0.0000   0.0000   0.0000   0.3254
  15.000   1.1547   0.17317   0.16932  -0.1220  0.0301  1.0000  -3.7893   0.0000   0.0000   0.0000   0.3376
  15.500   1.1518   0.18726   0.18337  -0.1299  0.0307  1.0000  -3.5198   0.0000   0.0000   0.0000   0.3442


