xflr5 v6.61

 Calculated polar for: BLD_0

 1 1 Reynolds number fixed          Mach number fixed         

 xtrf =   1.000 (top)        1.000 (bottom)
 Mach =   0.200     Re =     0.125 e 6     Ncrit =   7.000

  alpha     CL        CD       CDp       Cm    Top Xtr Bot Xtr   Cpmin    Chinge    XCp    
 ------- -------- --------- --------- -------- ------- ------- -------- --------- ---------
 -22.500  -0.6707   0.27531   0.26992   0.0234  1.0000  0.0166  -1.5488   0.0000   0.0000   0.0000   0.2703
 -22.000  -0.6557   0.26818   0.26278   0.0212  1.0000  0.0172  -1.4547   0.0000   0.0000   0.0000   0.2683
 -21.500  -0.6407   0.26271   0.25731   0.0182  1.0000  0.0179  -1.4257   0.0000   0.0000   0.0000   0.2650
 -21.000  -0.6256   0.25722   0.25183   0.0152  1.0000  0.0186  -1.4115   0.0000   0.0000   0.0000   0.2614
 -20.500  -0.6104   0.25172   0.24631   0.0123  1.0000  0.0194  -1.4000   0.0000   0.0000   0.0000   0.2576
 -20.000  -0.5952   0.24620   0.24080   0.0094  1.0000  0.0202  -1.3893   0.0000   0.0000   0.0000   0.2537
 -19.500  -0.5800   0.24066   0.23527   0.0065  1.0000  0.0210  -1.3813   0.0000   0.0000   0.0000   0.2496
 -19.000  -0.5649   0.23526   0.22988   0.0036  1.0000  0.0216  -1.3820   0.0000   0.0000   0.0000   0.2451
 -18.500  -0.5502   0.23021   0.22484   0.0006  1.0000  0.0219  -1.3928   0.0000   0.0000   0.0000   0.2401
 -18.000  -0.5367   0.22560   0.22026  -0.0026  1.0000  0.0221  -1.4099   0.0000   0.0000   0.0000   0.2347
 -17.500  -0.5244   0.22139   0.21608  -0.0057  1.0000  0.0222  -1.4440   0.0000   0.0000   0.0000   0.2290
 -17.000  -0.5083   0.21347   0.20816  -0.0071  1.0000  0.0224  -1.4120   0.0000   0.0000   0.0000   0.2261
 -16.500  -0.4929   0.20658   0.20129  -0.0082  1.0000  0.0231  -1.3423   0.0000   0.0000   0.0000   0.2237
 -16.000  -0.4788   0.20086   0.19560  -0.0099  1.0000  0.0242  -1.3195   0.0000   0.0000   0.0000   0.2200
 -15.500  -0.4651   0.19526   0.19003  -0.0117  1.0000  0.0257  -1.3197   0.0000   0.0000   0.0000   0.2158
 -15.000  -0.4521   0.19005   0.18484  -0.0139  1.0000  0.0273  -1.3619   0.0000   0.0000   0.0000   0.2104
 -14.500  -0.4429   0.18658   0.18142  -0.0169  1.0000  0.0280  -1.4614   0.0000   0.0000   0.0000   0.2034
 -14.000  -0.4374   0.18367   0.17857  -0.0197  1.0000  0.0283  -1.5567   0.0000   0.0000   0.0000   0.1969
 -13.500  -0.4221   0.17490   0.16985  -0.0202  1.0000  0.0287  -1.5321   0.0000   0.0000   0.0000   0.1941
 -13.000  -0.4055   0.16670   0.16163  -0.0197  1.0000  0.0296  -1.4199   0.0000   0.0000   0.0000   0.1935
 -12.500  -0.3937   0.16087   0.15584  -0.0203  1.0000  0.0307  -1.3762   0.0000   0.0000   0.0000   0.1908
 -12.000  -0.3830   0.15526   0.15028  -0.0210  1.0000  0.0319  -1.3517   0.0000   0.0000   0.0000   0.1877
 -11.500  -0.3732   0.14973   0.14479  -0.0217  1.0000  0.0332  -1.3369   0.0000   0.0000   0.0000   0.1846
 -11.000  -0.3644   0.14427   0.13939  -0.0224  1.0000  0.0347  -1.3309   0.0000   0.0000   0.0000   0.1816
 -10.500  -0.3572   0.13914   0.13432  -0.0232  1.0000  0.0362  -1.3477   0.0000   0.0000   0.0000   0.1782
 -10.000  -0.3549   0.13505   0.13032  -0.0247  1.0000  0.0370  -1.4130   0.0000   0.0000   0.0000   0.1741
  -9.500  -0.3575   0.13154   0.12690  -0.0260  1.0000  0.0372  -1.4904   0.0000   0.0000   0.0000   0.1715
  -9.000  -0.3609   0.12770   0.12317  -0.0268  1.0000  0.0374  -1.5726   0.0000   0.0000   0.0000   0.1704
  -8.500  -0.3371   0.11804   0.11351  -0.0230  1.0000  0.0389  -1.3921   0.0000   0.0000   0.0000   0.1762
  -8.000  -0.3327   0.11318   0.10874  -0.0217  1.0000  0.0404  -1.3752   0.0000   0.0000   0.0000   0.1797
  -7.500  -0.3325   0.10875   0.10440  -0.0203  1.0000  0.0422  -1.3942   0.0000   0.0000   0.0000   0.1842
  -7.000  -0.3381   0.10487   0.10064  -0.0187  1.0000  0.0441  -1.4476   0.0000   0.0000   0.0000   0.1905
  -6.500  -0.3593   0.10270   0.09863  -0.0161  1.0000  0.0454  -1.5658   0.0000   0.0000   0.0000   0.2018
  -5.000  -0.3616   0.08834   0.08460  -0.0123  1.0000  0.0512  -1.5766   0.0000   0.0000   0.0000   0.2133
  -4.500  -0.2898   0.07796   0.07418  -0.0349  0.9887  0.0572  -1.6764   0.0000   0.0000   0.0000   0.1261
  -4.000  -0.1892   0.06612   0.06214  -0.0646  0.9787  0.0661  -1.7938   0.0000   0.0000   0.0000  -0.0967
  -3.000   0.0471   0.03464   0.02927  -0.1150  0.9728  0.0350  -2.3492   0.0000   0.0000   0.0000   2.7151
  -2.500   0.1703   0.02603   0.01893  -0.1322  0.9727  0.0394  -2.2755   0.0000   0.0000   0.0000   1.0319
  -2.000   0.2604   0.02284   0.01496  -0.1388  0.9675  0.0435  -2.0437   0.0000   0.0000   0.0000   0.7862
  -1.500   0.3483   0.02101   0.01288  -0.1448  0.9610  0.0661  -1.7380   0.0000   0.0000   0.0000   0.6675
  -1.000   0.4292   0.02002   0.01203  -0.1497  0.9497  0.1361  -1.3113   0.0000   0.0000   0.0000   0.5995
  -0.500   0.5062   0.01931   0.01185  -0.1540  0.9359  0.3005  -0.8976   0.0000   0.0000   0.0000   0.5541
   0.000   0.5864   0.01830   0.01154  -0.1582  0.9229  0.5439  -0.6453   0.0000   0.0000   0.0000   0.5192
   1.000   0.7245   0.01626   0.00990  -0.1601  0.8893  1.0000  -0.7973   0.0000   0.0000   0.0000   0.4692
   1.500   0.7982   0.01548   0.00899  -0.1620  0.8688  1.0000  -0.8927   0.0000   0.0000   0.0000   0.4506
   2.000   0.8721   0.01474   0.00820  -0.1638  0.8441  1.0000  -1.0047   0.0000   0.0000   0.0000   0.4350
   2.500   0.9509   0.01403   0.00744  -0.1665  0.8102  1.0000  -1.1307   0.0000   0.0000   0.0000   0.4218
   3.000   1.0401   0.01351   0.00683  -0.1714  0.7601  1.0000  -1.2905   0.0000   0.0000   0.0000   0.4109
   3.500   1.1133   0.01368   0.00671  -0.1733  0.6863  1.0000  -1.4439   0.0000   0.0000   0.0000   0.4012
   4.000   1.1686   0.01444   0.00710  -0.1718  0.6012  1.0000  -1.6264   0.0000   0.0000   0.0000   0.3920
   4.500   1.2136   0.01553   0.00777  -0.1686  0.5201  1.0000  -1.8016   0.0000   0.0000   0.0000   0.3833
   5.000   1.2548   0.01676   0.00873  -0.1650  0.4467  1.0000  -1.9736   0.0000   0.0000   0.0000   0.3752
   5.500   1.2937   0.01813   0.00979  -0.1611  0.3793  1.0000  -2.2364   0.0000   0.0000   0.0000   0.3676
   6.000   1.3292   0.01965   0.01096  -0.1569  0.3105  1.0000  -2.5218   0.0000   0.0000   0.0000   0.3605
   6.500   1.3659   0.02117   0.01227  -0.1531  0.2543  1.0000  -2.8599   0.0000   0.0000   0.0000   0.3538
   7.000   1.4030   0.02273   0.01384  -0.1493  0.2121  1.0000  -3.2234   0.0000   0.0000   0.0000   0.3475
   7.500   1.4378   0.02435   0.01543  -0.1453  0.1735  1.0000  -3.5906   0.0000   0.0000   0.0000   0.3414
   8.000   1.4713   0.02610   0.01727  -0.1411  0.1465  1.0000  -3.9582   0.0000   0.0000   0.0000   0.3355
   8.500   1.5012   0.02808   0.01934  -0.1364  0.1187  1.0000  -4.3166   0.0000   0.0000   0.0000   0.3298
   9.000   1.5275   0.03039   0.02182  -0.1314  0.0911  1.0000  -4.6523   0.0000   0.0000   0.0000   0.3241
   9.500   1.5443   0.03351   0.02506  -0.1254  0.0662  1.0000  -4.9265   0.0000   0.0000   0.0000   0.3185
  10.000   1.5536   0.03740   0.02920  -0.1187  0.0505  1.0000  -5.1261   0.0000   0.0000   0.0000   0.3129
  10.500   1.5581   0.04183   0.03389  -0.1124  0.0424  1.0000  -5.3091   0.0000   0.0000   0.0000   0.3078
  11.000   1.5573   0.04699   0.03926  -0.1067  0.0375  1.0000  -5.4854   0.0000   0.0000   0.0000   0.3034
  11.500   1.5608   0.05251   0.04527  -0.1020  0.0347  1.0000  -5.6827   0.0000   0.0000   0.0000   0.2994
  12.000   1.5606   0.05885   0.05205  -0.0983  0.0328  1.0000  -5.8726   0.0000   0.0000   0.0000   0.2961
  12.500   1.5551   0.06612   0.05979  -0.0956  0.0313  1.0000  -6.0300   0.0000   0.0000   0.0000   0.2936
  13.000   1.5432   0.07463   0.06874  -0.0943  0.0304  1.0000  -6.1382   0.0000   0.0000   0.0000   0.2924
  13.500   1.5240   0.08472   0.07930  -0.0951  0.0297  1.0000  -6.1782   0.0000   0.0000   0.0000   0.2926
  14.000   1.4977   0.09674   0.09182  -0.0985  0.0294  1.0000  -6.1377   0.0000   0.0000   0.0000   0.2950
  14.500   1.4656   0.11093   0.10651  -0.1053  0.0293  1.0000  -6.0134   0.0000   0.0000   0.0000   0.3002
  15.000   1.4289   0.12792   0.12397  -0.1164  0.0294  1.0000  -5.7838   0.0000   0.0000   0.0000   0.3090
  15.500   1.3616   0.15691   0.15353  -0.1389  0.0306  1.0000  -5.0412   0.0000   0.0000   0.0000   0.3293
  16.000   1.2768   0.20216   0.19869  -0.1701  0.0335  1.0000  -3.3585   0.0000   0.0000   0.0000   0.3617
  16.500   1.2759   0.21686   0.21334  -0.1794  0.0341  1.0000  -3.0575   0.0000   0.0000   0.0000   0.3686
  17.000   1.2820   0.22901   0.22547  -0.1869  0.0351  1.0000  -2.8649   0.0000   0.0000   0.0000   0.3732
  17.500   1.2930   0.23899   0.23546  -0.1929  0.0365  1.0000  -2.7724   0.0000   0.0000   0.0000   0.3757


