xflr5 v6.61

 Calculated polar for: BLD_100

 1 1 Reynolds number fixed          Mach number fixed         

 xtrf =   1.000 (top)        1.000 (bottom)
 Mach =   0.200     Re =     0.050 e 6     Ncrit =   9.000

  alpha     CL        CD       CDp       Cm    Top Xtr Bot Xtr   Cpmin    Chinge    XCp    
 ------- -------- --------- --------- -------- ------- ------- -------- --------- ---------
 -22.000  -0.7703   0.27625   0.26838   0.0577  1.0000  0.0433  -1.5901   0.0000   0.0000   0.0000   0.3121
 -21.500  -0.7520   0.26964   0.26174   0.0537  1.0000  0.0453  -1.5542   0.0000   0.0000   0.0000   0.3091
 -21.000  -0.7338   0.26375   0.25582   0.0494  1.0000  0.0474  -1.5353   0.0000   0.0000   0.0000   0.3055
 -20.500  -0.7158   0.25844   0.25050   0.0448  1.0000  0.0496  -1.5301   0.0000   0.0000   0.0000   0.3013
 -20.000  -0.6998   0.25590   0.24798   0.0393  1.0000  0.0511  -1.5607   0.0000   0.0000   0.0000   0.2955
 -19.500  -0.6828   0.25015   0.24227   0.0349  1.0000  0.0520  -1.5566   0.0000   0.0000   0.0000   0.2909
 -19.000  -0.6615   0.24002   0.23211   0.0325  1.0000  0.0549  -1.4663   0.0000   0.0000   0.0000   0.2892
 -18.500  -0.6432   0.23395   0.22604   0.0286  1.0000  0.0580  -1.4588   0.0000   0.0000   0.0000   0.2850
 -18.000  -0.6264   0.22924   0.22132   0.0241  1.0000  0.0607  -1.4818   0.0000   0.0000   0.0000   0.2794
 -17.500  -0.6150   0.22842   0.22055   0.0186  1.0000  0.0618  -1.5534   0.0000   0.0000   0.0000   0.2718
 -17.000  -0.5910   0.21614   0.20827   0.0168  1.0000  0.0641  -1.4729   0.0000   0.0000   0.0000   0.2701
 -16.500  -0.5725   0.20944   0.20157   0.0137  1.0000  0.0678  -1.4427   0.0000   0.0000   0.0000   0.2659
 -16.000  -0.5571   0.20460   0.19676   0.0097  1.0000  0.0713  -1.4551   0.0000   0.0000   0.0000   0.2597
 -15.500  -0.5509   0.20439   0.19662   0.0044  1.0000  0.0726  -1.5334   0.0000   0.0000   0.0000   0.2508
 -15.000  -0.5225   0.19090   0.18310   0.0037  1.0000  0.0775  -1.4039   0.0000   0.0000   0.0000   0.2499
 -14.500  -0.5093   0.18629   0.17852  -0.0000  1.0000  0.0824  -1.4093   0.0000   0.0000   0.0000   0.2431
 -14.000  -0.4960   0.18029   0.17259  -0.0033  1.0000  0.0847  -1.4333   0.0000   0.0000   0.0000   0.2368
 -13.500  -0.4766   0.17229   0.16459  -0.0051  1.0000  0.0902  -1.3985   0.0000   0.0000   0.0000   0.2330
 -13.000  -0.4701   0.16908   0.16145  -0.0091  1.0000  0.0942  -1.4622   0.0000   0.0000   0.0000   0.2246
 -12.500  -0.4496   0.15983   0.15220  -0.0104  1.0000  0.0984  -1.4215   0.0000   0.0000   0.0000   0.2209
 -12.000  -0.4398   0.15477   0.14720  -0.0133  1.0000  0.1046  -1.4440   0.0000   0.0000   0.0000   0.2140
 -11.500  -0.4255   0.14747   0.13996  -0.0152  1.0000  0.1089  -1.4343   0.0000   0.0000   0.0000   0.2088
 -11.000  -0.4190   0.14292   0.13549  -0.0181  1.0000  0.1164  -1.4605   0.0000   0.0000   0.0000   0.2017
 -10.500  -0.4017   0.13486   0.12748  -0.0189  1.0000  0.1240  -1.4158   0.0000   0.0000   0.0000   0.1978
 -10.000  -0.3966   0.12965   0.12236  -0.0216  1.0000  0.1301  -1.4415   0.0000   0.0000   0.0000   0.1908
  -9.750  -0.3866   0.12569   0.11842  -0.0216  1.0000  0.1353  -1.4050   0.0000   0.0000   0.0000   0.1894
  -9.500  -0.3895   0.12437   0.11718  -0.0235  1.0000  0.1391  -1.4406   0.0000   0.0000   0.0000   0.1853
  -9.250  -0.3812   0.12018   0.11302  -0.0237  1.0000  0.1421  -1.4167   0.0000   0.0000   0.0000   0.1834
  -9.000  -0.3741   0.11690   0.10977  -0.0239  1.0000  0.1479  -1.3963   0.0000   0.0000   0.0000   0.1817
  -8.750  -0.3826   0.11639   0.10938  -0.0260  1.0000  0.1511  -1.4560   0.0000   0.0000   0.0000   0.1779
  -8.500  -0.3662   0.11088   0.10387  -0.0249  1.0000  0.1565  -1.4109   0.0000   0.0000   0.0000   0.1779
  -8.250  -0.3705   0.10943   0.10253  -0.0260  1.0000  0.1618  -1.4453   0.0000   0.0000   0.0000   0.1760
  -8.000  -0.3624   0.10547   0.09862  -0.0255  1.0000  0.1665  -1.4308   0.0000   0.0000   0.0000   0.1757
  -7.750  -0.3665   0.10384   0.09709  -0.0257  1.0000  0.1730  -1.4533   0.0000   0.0000   0.0000   0.1762
  -7.500  -0.3603   0.10025   0.09354  -0.0249  1.0000  0.1791  -1.4384   0.0000   0.0000   0.0000   0.1774
  -7.250  -0.3716   0.09933   0.09277  -0.0244  1.0000  0.1848  -1.4731   0.0000   0.0000   0.0000   0.1812
  -7.000  -0.3647   0.09566   0.08917  -0.0229  1.0000  0.1922  -1.4495   0.0000   0.0000   0.0000   0.1840
  -6.750  -0.3793   0.09527   0.08894  -0.0249  1.0000  0.1972  -1.5097   0.0000   0.0000   0.0000   0.1817
  -6.500  -0.3705   0.09131   0.08503  -0.0224  1.0000  0.2068  -1.4707   0.0000   0.0000   0.0000   0.1870
  -6.250  -0.3686   0.08834   0.08215  -0.0212  1.0000  0.2139  -1.4622   0.0000   0.0000   0.0000   0.1899
  -5.750  -0.3761   0.08457   0.07856  -0.0233  1.0000  0.2317  -1.5036   0.0000   0.0000   0.0000   0.1858
  -5.500  -0.3719   0.08140   0.07545  -0.0213  1.0000  0.2423  -1.4788   0.0000   0.0000   0.0000   0.1906
  -5.250  -0.3701   0.07876   0.07288  -0.0211  1.0000  0.2540  -1.4725   0.0000   0.0000   0.0000   0.1911
  -5.000  -0.3674   0.07608   0.07025  -0.0213  1.0000  0.2666  -1.4671   0.0000   0.0000   0.0000   0.1901
  -2.750  -0.1367   0.04003   0.03231  -0.0617  1.0000  0.1688  -1.6217   0.0000   0.0000   0.0000  -0.2044
  -2.500  -0.0880   0.03556   0.02678  -0.0672  1.0000  0.1511  -1.6809   0.0000   0.0000   0.0000  -0.5186
  -2.250  -0.0571   0.03321   0.02419  -0.0686  1.0000  0.1565  -1.6016   0.0000   0.0000   0.0000  -0.9593
  -2.000  -0.0208   0.03084   0.02122  -0.0706  1.0000  0.1592  -1.5683   0.0000   0.0000   0.0000  -3.1639
  -1.750   0.0110   0.02924   0.01920  -0.0718  1.0000  0.1719  -1.5063   0.0000   0.0000   0.0000   6.8130
  -1.500   0.0419   0.02788   0.01744  -0.0726  1.0000  0.1864  -1.4369   0.0000   0.0000   0.0000   1.9917
  -1.250   0.0704   0.02688   0.01623  -0.0730  1.0000  0.2090  -1.3434   0.0000   0.0000   0.0000   1.2921
  -1.000   0.0979   0.02611   0.01541  -0.0733  1.0000  0.2442  -1.2474   0.0000   0.0000   0.0000   1.0014
  -0.750   0.1272   0.02536   0.01467  -0.0738  1.0000  0.2999  -1.1518   0.0000   0.0000   0.0000   0.8314
  -0.500   0.1630   0.02384   0.01382  -0.0754  1.0000  0.4349  -1.0373   0.0000   0.0000   0.0000   0.7132
  -0.250   0.1735   0.02212   0.01333  -0.0718  1.0000  1.0000  -0.9882   0.0000   0.0000   0.0000   0.6642
   0.000   0.1956   0.02287   0.01355  -0.0719  1.0000  1.0000  -0.8847   0.0000   0.0000   0.0000   0.6176
   0.250   0.2163   0.02369   0.01404  -0.0720  1.0000  1.0000  -0.7784   0.0000   0.0000   0.0000   0.5827
   0.500   0.2363   0.02459   0.01466  -0.0722  1.0000  1.0000  -0.6742   0.0000   0.0000   0.0000   0.5551
   0.750   0.2754   0.02568   0.01548  -0.0761  0.9913  1.0000  -0.5425   0.0000   0.0000   0.0000   0.5252
   1.000   0.3292   0.02686   0.01639  -0.0823  0.9773  1.0000  -0.5075   0.0000   0.0000   0.0000   0.4988
   1.250   0.3722   0.02787   0.01723  -0.0865  0.9611  1.0000  -0.5323   0.0000   0.0000   0.0000   0.4810
   1.500   0.4180   0.02885   0.01808  -0.0910  0.9464  1.0000  -0.5601   0.0000   0.0000   0.0000   0.4661
   1.750   0.4600   0.02978   0.01893  -0.0947  0.9315  1.0000  -0.5867   0.0000   0.0000   0.0000   0.4540
   2.000   0.4961   0.03066   0.01976  -0.0972  0.9160  1.0000  -0.6107   0.0000   0.0000   0.0000   0.4439
   2.250   0.5355   0.03151   0.02059  -0.1001  0.9018  1.0000  -0.6380   0.0000   0.0000   0.0000   0.4347
   2.500   0.5749   0.03232   0.02142  -0.1029  0.8882  1.0000  -0.6669   0.0000   0.0000   0.0000   0.4265
   2.750   0.6021   0.03323   0.02236  -0.1036  0.8729  1.0000  -0.6885   0.0000   0.0000   0.0000   0.4195
   3.000   0.6348   0.03408   0.02326  -0.1051  0.8589  1.0000  -0.7157   0.0000   0.0000   0.0000   0.4128
   3.250   0.6693   0.03488   0.02416  -0.1068  0.8456  1.0000  -0.7465   0.0000   0.0000   0.0000   0.4065
   3.500   0.7046   0.03563   0.02502  -0.1084  0.8328  1.0000  -0.7811   0.0000   0.0000   0.0000   0.4006
   3.750   0.7282   0.03666   0.02615  -0.1084  0.8184  1.0000  -0.8501   0.0000   0.0000   0.0000   0.3953
   4.000   0.7544   0.03764   0.02728  -0.1086  0.8044  1.0000  -0.9514   0.0000   0.0000   0.0000   0.3903
   4.250   0.7842   0.03850   0.02831  -0.1092  0.7910  1.0000  -1.0770   0.0000   0.0000   0.0000   0.3854
   4.500   0.8167   0.03924   0.02923  -0.1099  0.7777  1.0000  -1.2241   0.0000   0.0000   0.0000   0.3805
   4.750   0.8494   0.03992   0.03016  -0.1105  0.7644  1.0000  -1.3886   0.0000   0.0000   0.0000   0.3757
   5.000   0.8654   0.04129   0.03171  -0.1093  0.7485  1.0000  -1.5087   0.0000   0.0000   0.0000   0.3717
   5.250   0.8967   0.04194   0.03261  -0.1094  0.7339  1.0000  -1.6970   0.0000   0.0000   0.0000   0.3672
   5.500   0.9397   0.04179   0.03284  -0.1099  0.7198  1.0000  -1.9615   0.0000   0.0000   0.0000   0.3619
   5.750   0.9549   0.04310   0.03439  -0.1081  0.7011  1.0000  -2.1140   0.0000   0.0000   0.0000   0.3580
   6.000   0.9912   0.04268   0.03437  -0.1068  0.6819  1.0000  -2.3708   0.0000   0.0000   0.0000   0.3523
   6.250   1.0958   0.02960   0.02186  -0.0964  0.6042  1.0000  -3.1089   0.0000   0.0000   0.0000   0.3321
   6.500   1.1163   0.02683   0.01918  -0.0887  0.5322  1.0000  -3.3533   0.0000   0.0000   0.0000   0.3231
   6.750   1.1071   0.02625   0.01806  -0.0784  0.3756  1.0000  -3.4013   0.0000   0.0000   0.0000   0.3141
   7.000   1.0901   0.02969   0.01970  -0.0714  0.2149  1.0000  -3.3687   0.0000   0.0000   0.0000   0.3084
   7.250   1.0916   0.03291   0.02228  -0.0677  0.1666  1.0000  -3.3967   0.0000   0.0000   0.0000   0.3046
   7.500   1.1078   0.03564   0.02477  -0.0653  0.1402  1.0000  -3.4948   0.0000   0.0000   0.0000   0.3013
   7.750   1.1409   0.03844   0.02746  -0.0645  0.1204  1.0000  -3.6574   0.0000   0.0000   0.0000   0.2986
   8.000   1.1840   0.04204   0.03083  -0.0654  0.1065  1.0000  -3.8554   0.0000   0.0000   0.0000   0.2970
   8.250   1.2126   0.04535   0.03471  -0.0642  0.1009  1.0000  -3.9474   0.0000   0.0000   0.0000   0.2944
   8.500   1.2438   0.04969   0.03912  -0.0642  0.0959  1.0000  -4.0797   0.0000   0.0000   0.0000   0.2928
   8.750   1.2544   0.05313   0.04328  -0.0615  0.0937  1.0000  -4.1009   0.0000   0.0000   0.0000   0.2900
   9.000   1.2633   0.05710   0.04782  -0.0590  0.0926  1.0000  -4.1157   0.0000   0.0000   0.0000   0.2874
   9.250   1.2682   0.06143   0.05265  -0.0565  0.0931  1.0000  -4.1225   0.0000   0.0000   0.0000   0.2851
   9.500   1.2690   0.06591   0.05758  -0.0541  0.0939  1.0000  -4.1296   0.0000   0.0000   0.0000   0.2829
   9.750   1.2662   0.07046   0.06251  -0.0517  0.0947  1.0000  -4.1280   0.0000   0.0000   0.0000   0.2809
  10.000   1.2611   0.07513   0.06748  -0.0495  0.0954  1.0000  -4.1218   0.0000   0.0000   0.0000   0.2791
  10.250   1.2560   0.08002   0.07260  -0.0477  0.0960  1.0000  -4.1181   0.0000   0.0000   0.0000   0.2776
  10.500   1.2036   0.08304   0.07617  -0.0438  0.0990  1.0000  -3.9038   0.0000   0.0000   0.0000   0.2758
  10.750   1.1711   0.08815   0.08151  -0.0435  0.1008  1.0000  -3.7787   0.0000   0.0000   0.0000   0.2762
  11.000   1.1431   0.09414   0.08765  -0.0450  0.1025  1.0000  -3.6628   0.0000   0.0000   0.0000   0.2782
  11.250   1.1201   0.10080   0.09441  -0.0476  0.1042  1.0000  -3.5567   0.0000   0.0000   0.0000   0.2811
  11.500   1.1174   0.10690   0.10054  -0.0487  0.1062  1.0000  -3.5405   0.0000   0.0000   0.0000   0.2819
  11.750   1.0468   0.12256   0.11620  -0.0642  0.1125  1.0000  -3.0482   0.0000   0.0000   0.0000   0.2996
  12.000   1.0439   0.12973   0.12336  -0.0668  0.1161  1.0000  -2.9768   0.0000   0.0000   0.0000   0.3021
  12.250   1.0123   0.14475   0.13824  -0.0792  0.1347  1.0000  -2.5969   0.0000   0.0000   0.0000   0.3165
  12.500   0.8508   0.14590   0.13960  -0.0632  0.1409  1.0000  -2.1910   0.0000   0.0000   0.0000   0.3134
  12.750   0.9736   0.17349   0.16682  -0.1044  0.2706  1.0000  -1.9554   0.0000   0.0000   0.0000   0.3457
  13.000   0.7799   0.16670   0.16032  -0.0794  0.2711  1.0000  -1.5643   0.0000   0.0000   0.0000   0.3415
  13.250   0.9756   0.18142   0.17473  -0.1077  0.2612  1.0000  -1.9127   0.0000   0.0000   0.0000   0.3483
  13.500   0.7705   0.17171   0.16535  -0.0801  0.2615  1.0000  -1.5107   0.0000   0.0000   0.0000   0.3432
  13.750   0.9968   0.19115   0.18449  -0.1091  0.2469  1.0000  -1.9325   0.0000   0.0000   0.0000   0.3467
  14.000   0.7688   0.17735   0.17102  -0.0808  0.2501  1.0000  -1.4787   0.0000   0.0000   0.0000   0.3439
  14.250   0.9970   0.19728   0.19056  -0.1130  0.2330  1.0000  -1.8849   0.0000   0.0000   0.0000   0.3500
  14.500   0.7675   0.18291   0.17660  -0.0818  0.2394  1.0000  -1.4431   0.0000   0.0000   0.0000   0.3449
  14.750   1.0083   0.20470   0.19797  -0.1161  0.2194  1.0000  -1.8958   0.0000   0.0000   0.0000   0.3511
  15.000   0.7835   0.19135   0.18511  -0.0820  0.2251  1.0000  -1.4616   0.0000   0.0000   0.0000   0.3424
  15.500   0.7758   0.19524   0.18900  -0.0834  0.2132  1.0000  -1.4028   0.0000   0.0000   0.0000   0.3449
  16.000   0.7761   0.20064   0.19443  -0.0848  0.2019  1.0000  -1.3885   0.0000   0.0000   0.0000   0.3461
  16.500   0.7776   0.20614   0.19996  -0.0862  0.1907  1.0000  -1.3753   0.0000   0.0000   0.0000   0.3472
  17.000   0.7788   0.21145   0.20529  -0.0878  0.1788  1.0000  -1.3573   0.0000   0.0000   0.0000   0.3485
  17.500   0.7816   0.21711   0.21097  -0.0894  0.1673  1.0000  -1.3423   0.0000   0.0000   0.0000   0.3496
  18.000   0.7873   0.22352   0.21743  -0.0909  0.1580  1.0000  -1.3344   0.0000   0.0000   0.0000   0.3500
  18.500   0.7971   0.23107   0.22503  -0.0919  0.1486  1.0000  -1.3424   0.0000   0.0000   0.0000   0.3493
  19.000   0.8005   0.23671   0.23072  -0.0937  0.1389  1.0000  -1.3261   0.0000   0.0000   0.0000   0.3504
  19.500   0.7977   0.24110   0.23511  -0.0965  0.1310  1.0000  -1.2867   0.0000   0.0000   0.0000   0.3536
  20.000   0.8012   0.24731   0.24135  -0.0985  0.1239  1.0000  -1.2797   0.0000   0.0000   0.0000   0.3550


