xflr5 v6.61

 Calculated polar for: BLD_50

 1 1 Reynolds number fixed          Mach number fixed         

 xtrf =   1.000 (top)        1.000 (bottom)
 Mach =   0.200     Re =     0.060 e 6     Ncrit =   7.000

  alpha     CL        CD       CDp       Cm    Top Xtr Bot Xtr   Cpmin    Chinge    XCp    
 ------- -------- --------- --------- -------- ------- ------- -------- --------- ---------
 -23.000  -0.7293   0.28177   0.27412   0.0399  1.0000  0.0291  -1.5539   0.0000   0.0000   0.0000   0.2903
 -22.500  -0.7121   0.27451   0.26684   0.0366  1.0000  0.0305  -1.4742   0.0000   0.0000   0.0000   0.2876
 -22.000  -0.6951   0.26871   0.26103   0.0328  1.0000  0.0321  -1.4240   0.0000   0.0000   0.0000   0.2838
 -21.500  -0.6779   0.26307   0.25535   0.0288  1.0000  0.0335  -1.4064   0.0000   0.0000   0.0000   0.2798
 -21.000  -0.6608   0.25750   0.24978   0.0249  1.0000  0.0350  -1.4158   0.0000   0.0000   0.0000   0.2754
 -20.500  -0.6438   0.25237   0.24466   0.0208  1.0000  0.0364  -1.4404   0.0000   0.0000   0.0000   0.2705
 -20.000  -0.6278   0.24849   0.24080   0.0163  1.0000  0.0371  -1.4884   0.0000   0.0000   0.0000   0.2646
 -19.500  -0.6140   0.24612   0.23845   0.0117  1.0000  0.0375  -1.5516   0.0000   0.0000   0.0000   0.2581
 -19.000  -0.5937   0.23537   0.22772   0.0097  1.0000  0.0384  -1.4791   0.0000   0.0000   0.0000   0.2557
 -18.500  -0.5761   0.22861   0.22093   0.0070  1.0000  0.0401  -1.4337   0.0000   0.0000   0.0000   0.2519
 -18.000  -0.5593   0.22275   0.21509   0.0039  1.0000  0.0420  -1.4131   0.0000   0.0000   0.0000   0.2471
 -17.500  -0.5430   0.21724   0.20959   0.0007  1.0000  0.0441  -1.4067   0.0000   0.0000   0.0000   0.2416
 -17.000  -0.5294   0.21382   0.20621  -0.0034  1.0000  0.0458  -1.4445   0.0000   0.0000   0.0000   0.2343
 -16.500  -0.5162   0.20903   0.20149  -0.0069  1.0000  0.0465  -1.4610   0.0000   0.0000   0.0000   0.2278
 -16.000  -0.4958   0.19957   0.19203  -0.0078  1.0000  0.0490  -1.3494   0.0000   0.0000   0.0000   0.2254
 -15.500  -0.4802   0.19365   0.18614  -0.0102  1.0000  0.0516  -1.3120   0.0000   0.0000   0.0000   0.2202
 -15.000  -0.4664   0.18841   0.18089  -0.0130  1.0000  0.0543  -1.3021   0.0000   0.0000   0.0000   0.2139
 -14.500  -0.4577   0.18540   0.17794  -0.0166  1.0000  0.0557  -1.3826   0.0000   0.0000   0.0000   0.2059
 -14.000  -0.4416   0.17745   0.17005  -0.0181  1.0000  0.0569  -1.3734   0.0000   0.0000   0.0000   0.2014
 -13.500  -0.4253   0.17026   0.16290  -0.0190  1.0000  0.0598  -1.3353   0.0000   0.0000   0.0000   0.1977
 -13.000  -0.4131   0.16467   0.15735  -0.0208  1.0000  0.0632  -1.3489   0.0000   0.0000   0.0000   0.1921
 -12.500  -0.4075   0.16104   0.15381  -0.0237  1.0000  0.0655  -1.4215   0.0000   0.0000   0.0000   0.1848
 -12.000  -0.3947   0.15392   0.14676  -0.0247  1.0000  0.0670  -1.4175   0.0000   0.0000   0.0000   0.1804
 -11.500  -0.3804   0.14717   0.14006  -0.0251  1.0000  0.0712  -1.3744   0.0000   0.0000   0.0000   0.1773
 -11.000  -0.3779   0.14363   0.13662  -0.0274  1.0000  0.0753  -1.4372   0.0000   0.0000   0.0000   0.1711
 -10.500  -0.3641   0.13612   0.12914  -0.0274  1.0000  0.0785  -1.3959   0.0000   0.0000   0.0000   0.1685
 -10.000  -0.3559   0.13076   0.12387  -0.0280  1.0000  0.0840  -1.3860   0.0000   0.0000   0.0000   0.1653
  -9.500  -0.3646   0.12881   0.12209  -0.0306  1.0000  0.0864  -1.4911   0.0000   0.0000   0.0000   0.1608
  -9.000  -0.3429   0.11968   0.11300  -0.0286  1.0000  0.0910  -1.3785   0.0000   0.0000   0.0000   0.1612
  -8.500  -0.3451   0.11583   0.10931  -0.0292  1.0000  0.0961  -1.4131   0.0000   0.0000   0.0000   0.1606
  -8.000  -0.3435   0.11042   0.10406  -0.0284  1.0000  0.0988  -1.4127   0.0000   0.0000   0.0000   0.1628
  -7.500  -0.3411   0.10546   0.09924  -0.0265  1.0000  0.1048  -1.3809   0.0000   0.0000   0.0000   0.1681
  -7.000  -0.3672   0.10424   0.09830  -0.0262  1.0000  0.1077  -1.4964   0.0000   0.0000   0.0000   0.1755
  -6.500  -0.3542   0.09693   0.09109  -0.0219  1.0000  0.1132  -1.4375   0.0000   0.0000   0.0000   0.1849
  -5.500  -0.3524   0.08710   0.08156  -0.0227  1.0000  0.1258  -1.4944   0.0000   0.0000   0.0000   0.1830
  -5.000  -0.3424   0.08144   0.07602  -0.0251  1.0000  0.1342  -1.5117   0.0000   0.0000   0.0000   0.1745
  -4.000  -0.2973   0.06942   0.06404  -0.0333  1.0000  0.1684  -1.4904   0.0000   0.0000   0.0000   0.1357
  -3.000  -0.0871   0.04107   0.03392  -0.0814  1.0000  0.0748  -2.0157   0.0000   0.0000   0.0000  -0.6923
  -2.500   0.0090   0.03278   0.02437  -0.0932  1.0000  0.0728  -1.9827   0.0000   0.0000   0.0000  10.6274
  -2.000   0.0881   0.02852   0.01900  -0.0992  1.0000  0.0887  -1.8648   0.0000   0.0000   0.0000   1.3823
  -1.500   0.1518   0.02662   0.01668  -0.1017  1.0000  0.1263  -1.6778   0.0000   0.0000   0.0000   0.9225
  -1.000   0.2137   0.02538   0.01522  -0.1035  1.0000  0.1720  -1.4236   0.0000   0.0000   0.0000   0.7357
  -0.500   0.3038   0.02451   0.01464  -0.1108  0.9896  0.3144  -1.0631   0.0000   0.0000   0.0000   0.6150
   0.000   0.3801   0.02278   0.01441  -0.1144  0.9708  1.0000  -0.7412   0.0000   0.0000   0.0000   0.5507
   0.500   0.4655   0.02357   0.01453  -0.1208  0.9472  1.0000  -0.5777   0.0000   0.0000   0.0000   0.5085
   1.000   0.5470   0.02411   0.01471  -0.1260  0.9219  1.0000  -0.6396   0.0000   0.0000   0.0000   0.4788
   1.500   0.6255   0.02441   0.01483  -0.1301  0.8956  1.0000  -0.7067   0.0000   0.0000   0.0000   0.4560
   2.000   0.7019   0.02444   0.01480  -0.1332  0.8685  1.0000  -0.7830   0.0000   0.0000   0.0000   0.4374
   2.500   0.7756   0.02424   0.01465  -0.1353  0.8406  1.0000  -0.8714   0.0000   0.0000   0.0000   0.4216
   3.000   0.8543   0.02369   0.01421  -0.1375  0.8137  1.0000  -0.9862   0.0000   0.0000   0.0000   0.4077
   3.500   0.9256   0.02321   0.01391  -0.1381  0.7817  1.0000  -1.1242   0.0000   0.0000   0.0000   0.3954
   4.000   0.9929   0.02286   0.01377  -0.1377  0.7452  1.0000  -1.3129   0.0000   0.0000   0.0000   0.3845
   4.500   1.0594   0.02257   0.01366  -0.1370  0.7041  1.0000  -1.6113   0.0000   0.0000   0.0000   0.3745
   5.000   1.1168   0.02274   0.01399  -0.1348  0.6550  1.0000  -1.9321   0.0000   0.0000   0.0000   0.3654
   5.500   1.1700   0.02313   0.01456  -0.1319  0.5994  1.0000  -2.3154   0.0000   0.0000   0.0000   0.3568
   6.000   1.2161   0.02385   0.01536  -0.1279  0.5363  1.0000  -2.6913   0.0000   0.0000   0.0000   0.3486
   6.500   1.2543   0.02487   0.01638  -0.1228  0.4631  1.0000  -3.0500   0.0000   0.0000   0.0000   0.3407
   7.000   1.2792   0.02632   0.01786  -0.1159  0.3711  1.0000  -3.3613   0.0000   0.0000   0.0000   0.3327
   7.500   1.2935   0.02883   0.01996  -0.1084  0.2656  1.0000  -3.6637   0.0000   0.0000   0.0000   0.3252
   8.000   1.2973   0.03284   0.02329  -0.1008  0.1664  1.0000  -3.8932   0.0000   0.0000   0.0000   0.3184
   8.500   1.3002   0.03736   0.02739  -0.0936  0.1103  1.0000  -4.0834   0.0000   0.0000   0.0000   0.3121
   9.000   1.3198   0.04219   0.03227  -0.0879  0.0833  1.0000  -4.2700   0.0000   0.0000   0.0000   0.3061
   9.500   1.3685   0.04796   0.03803  -0.0861  0.0692  1.0000  -4.5635   0.0000   0.0000   0.0000   0.3016
  10.000   1.3958   0.05366   0.04416  -0.0825  0.0595  1.0000  -4.8855   0.0000   0.0000   0.0000   0.2972
  10.500   1.3978   0.06043   0.05205  -0.0764  0.0561  1.0000  -4.9884   0.0000   0.0000   0.0000   0.2921
  11.000   1.3840   0.06797   0.06034  -0.0706  0.0546  1.0000  -5.0230   0.0000   0.0000   0.0000   0.2878
  11.500   1.3540   0.07645   0.06949  -0.0663  0.0541  1.0000  -4.9743   0.0000   0.0000   0.0000   0.2851
  12.000   1.3121   0.08683   0.08045  -0.0656  0.0543  1.0000  -4.8404   0.0000   0.0000   0.0000   0.2855
  12.500   1.2619   0.10019   0.09430  -0.0702  0.0551  1.0000  -4.6125   0.0000   0.0000   0.0000   0.2904
  13.000   1.2093   0.11753   0.11188  -0.0808  0.0565  1.0000  -4.2766   0.0000   0.0000   0.0000   0.3010
  13.500   1.1673   0.13744   0.13190  -0.0943  0.0581  1.0000  -3.8746   0.0000   0.0000   0.0000   0.3146
  14.000   1.1470   0.15527   0.14971  -0.1051  0.0593  1.0000  -3.5539   0.0000   0.0000   0.0000   0.3251
  14.500   0.8896   0.16614   0.16075  -0.0909  0.0772  1.0000  -2.2056   0.0000   0.0000   0.0000   0.3375
  15.000   0.8769   0.17548   0.17009  -0.0947  0.0775  1.0000  -2.0611   0.0000   0.0000   0.0000   0.3429
  15.500   0.8677   0.18417   0.17878  -0.0982  0.0775  1.0000  -1.9420   0.0000   0.0000   0.0000   0.3477
  16.500   0.8567   0.20744   0.20216  -0.1068  0.1307  1.0000  -1.5488   0.0000   0.0000   0.0000   0.3588
  17.000   0.8441   0.21260   0.20732  -0.1105  0.1281  1.0000  -1.4427   0.0000   0.0000   0.0000   0.3647
  17.500   0.8485   0.21912   0.21390  -0.1122  0.1223  1.0000  -1.4406   0.0000   0.0000   0.0000   0.3652
  18.000   0.8510   0.22608   0.22088  -0.1142  0.1193  1.0000  -1.4148   0.0000   0.0000   0.0000   0.3666
  18.500   0.8513   0.23196   0.22679  -0.1165  0.1126  1.0000  -1.3769   0.0000   0.0000   0.0000   0.3686
  19.000   0.8533   0.23851   0.23337  -0.1187  0.1076  1.0000  -1.3423   0.0000   0.0000   0.0000   0.3702
  19.500   0.8638   0.24620   0.24110  -0.1195  0.0995  1.0000  -1.4073   0.0000   0.0000   0.0000   0.3686
  20.000   0.8590   0.25136   0.24628  -0.1230  0.0943  1.0000  -1.3438   0.0000   0.0000   0.0000   0.3727


