xflr5 v6.61

 Calculated polar for: BLD_75

 1 1 Reynolds number fixed          Mach number fixed         

 xtrf =   1.000 (top)        1.000 (bottom)
 Mach =   0.200     Re =     0.100 e 6     Ncrit =   9.000

  alpha     CL        CD       CDp       Cm    Top Xtr Bot Xtr   Cpmin    Chinge    XCp    
 ------- -------- --------- --------- -------- ------- ------- -------- --------- ---------
 -17.500  -0.5673   0.21709   0.21127   0.0085  1.0000  0.0296  -1.5159   0.0000   0.0000   0.0000   0.2556
 -17.000  -0.5495   0.21027   0.20446   0.0058  1.0000  0.0310  -1.4657   0.0000   0.0000   0.0000   0.2515
 -16.500  -0.5324   0.20406   0.19827   0.0027  1.0000  0.0326  -1.4438   0.0000   0.0000   0.0000   0.2463
 -16.000  -0.5156   0.19794   0.19212  -0.0005  1.0000  0.0344  -1.4320   0.0000   0.0000   0.0000   0.2406
 -15.500  -0.4996   0.19214   0.18634  -0.0039  1.0000  0.0362  -1.4375   0.0000   0.0000   0.0000   0.2340
 -15.000  -0.4869   0.18808   0.18232  -0.0082  1.0000  0.0372  -1.4930   0.0000   0.0000   0.0000   0.2252
 -14.500  -0.4802   0.18562   0.17991  -0.0127  1.0000  0.0375  -1.5731   0.0000   0.0000   0.0000   0.2160
 -14.000  -0.4550   0.17335   0.16765  -0.0126  1.0000  0.0389  -1.4026   0.0000   0.0000   0.0000   0.2148
 -13.500  -0.4394   0.16681   0.16114  -0.0145  1.0000  0.0411  -1.3322   0.0000   0.0000   0.0000   0.2098
 -13.000  -0.4260   0.16097   0.15533  -0.0170  1.0000  0.0443  -1.3325   0.0000   0.0000   0.0000   0.2029
 -12.500  -0.4230   0.15861   0.15304  -0.0218  1.0000  0.0460  -1.4774   0.0000   0.0000   0.0000   0.1918
 -12.000  -0.4037   0.14881   0.14328  -0.0220  1.0000  0.0476  -1.4260   0.0000   0.0000   0.0000   0.1887
 -11.500  -0.3893   0.14211   0.13657  -0.0230  1.0000  0.0504  -1.3938   0.0000   0.0000   0.0000   0.1844
 -11.000  -0.3790   0.13634   0.13085  -0.0249  1.0000  0.0537  -1.4234   0.0000   0.0000   0.0000   0.1779
 -10.500  -0.3798   0.13329   0.12790  -0.0290  1.0000  0.0557  -1.5601   0.0000   0.0000   0.0000   0.1679
 -10.000  -0.3649   0.12487   0.11954  -0.0289  1.0000  0.0572  -1.5260   0.0000   0.0000   0.0000   0.1650
  -9.750  -0.3569   0.12131   0.11600  -0.0285  1.0000  0.0589  -1.4820   0.0000   0.0000   0.0000   0.1644
  -9.500  -0.3520   0.11841   0.11314  -0.0287  1.0000  0.0606  -1.4716   0.0000   0.0000   0.0000   0.1628
  -9.250  -0.3488   0.11575   0.11051  -0.0292  1.0000  0.0626  -1.4786   0.0000   0.0000   0.0000   0.1609
  -9.000  -0.3487   0.11358   0.10840  -0.0301  1.0000  0.0645  -1.5141   0.0000   0.0000   0.0000   0.1583
  -8.750  -0.3548   0.11250   0.10741  -0.0318  1.0000  0.0655  -1.5944   0.0000   0.0000   0.0000   0.1556
  -8.500  -0.3645   0.11171   0.10673  -0.0331  1.0000  0.0658  -1.6828   0.0000   0.0000   0.0000   0.1549
  -8.250  -0.3476   0.10565   0.10067  -0.0309  1.0000  0.0673  -1.5716   0.0000   0.0000   0.0000   0.1565
  -8.000  -0.3411   0.10253   0.09758  -0.0297  1.0000  0.0695  -1.5169   0.0000   0.0000   0.0000   0.1584
  -7.750  -0.3413   0.10027   0.09539  -0.0291  1.0000  0.0720  -1.5132   0.0000   0.0000   0.0000   0.1604
  -7.500  -0.3484   0.09879   0.09400  -0.0286  1.0000  0.0742  -1.5508   0.0000   0.0000   0.0000   0.1640
  -7.250  -0.3640   0.09821   0.09356  -0.0275  1.0000  0.0751  -1.6207   0.0000   0.0000   0.0000   0.1709
  -7.000  -0.3753   0.09729   0.09275  -0.0302  1.0000  0.0757  -1.7224   0.0000   0.0000   0.0000   0.1666
  -6.750  -0.3645   0.09236   0.08785  -0.0249  1.0000  0.0781  -1.5866   0.0000   0.0000   0.0000   0.1787
  -6.500  -0.3638   0.08996   0.08550  -0.0234  1.0000  0.0810  -1.5526   0.0000   0.0000   0.0000   0.1828
  -6.250  -0.3666   0.08784   0.08346  -0.0237  1.0000  0.0838  -1.5685   0.0000   0.0000   0.0000   0.1826
  -6.000  -0.3686   0.08613   0.08180  -0.0314  1.0000  0.0862  -1.6994   0.0000   0.0000   0.0000   0.1624
  -5.500  -0.3634   0.07971   0.07549  -0.0260  1.0000  0.0898  -1.5846   0.0000   0.0000   0.0000   0.1763
  -5.250  -0.3578   0.07699   0.07276  -0.0269  1.0000  0.0934  -1.5700   0.0000   0.0000   0.0000   0.1726
  -5.000  -0.3411   0.07305   0.06877  -0.0367  1.0000  0.0979  -1.6582   0.0000   0.0000   0.0000   0.1403
  -4.750  -0.3382   0.07037   0.06614  -0.0326  1.0000  0.1002  -1.5926   0.0000   0.0000   0.0000   0.1515
  -4.500  -0.3099   0.06621   0.06184  -0.0433  1.0000  0.1083  -1.6758   0.0000   0.0000   0.0000   0.1082
  -4.250  -0.3062   0.06349   0.05921  -0.0393  1.0000  0.1106  -1.6060   0.0000   0.0000   0.0000   0.1197
  -4.000  -0.2775   0.05946   0.05504  -0.0467  1.0000  0.1198  -1.6367   0.0000   0.0000   0.0000   0.0797
  -3.750  -0.2663   0.05690   0.05252  -0.0452  1.0000  0.1244  -1.5766   0.0000   0.0000   0.0000   0.0783
  -3.500  -0.2406   0.05343   0.04896  -0.0493  1.0000  0.1341  -1.5596   0.0000   0.0000   0.0000   0.0430
  -2.500  -0.0283   0.02913   0.02191  -0.0820  1.0000  0.0747  -1.9748   0.0000   0.0000   0.0000  -2.6716
  -2.250   0.0112   0.02640   0.01855  -0.0846  0.9999  0.0740  -1.9276   0.0000   0.0000   0.0000   7.8681
  -2.000   0.0644   0.02401   0.01559  -0.0894  0.9966  0.0790  -1.8384   0.0000   0.0000   0.0000   1.6460
  -1.750   0.1136   0.02300   0.01433  -0.0937  0.9909  0.1000  -1.6890   0.0000   0.0000   0.0000   1.0788
  -1.500   0.1634   0.02204   0.01326  -0.0980  0.9858  0.1261  -1.5246   0.0000   0.0000   0.0000   0.8520
  -1.250   0.2113   0.02121   0.01244  -0.1019  0.9795  0.1564  -1.3325   0.0000   0.0000   0.0000   0.7339
  -1.000   0.2573   0.02051   0.01187  -0.1055  0.9723  0.2070  -1.1681   0.0000   0.0000   0.0000   0.6612
  -0.750   0.3043   0.01973   0.01156  -0.1096  0.9655  0.3102  -0.9877   0.0000   0.0000   0.0000   0.6106
  -0.500   0.3393   0.01760   0.01129  -0.1101  0.9593  1.0000  -0.8298   0.0000   0.0000   0.0000   0.5746
  -0.250   0.3830   0.01777   0.01104  -0.1131  0.9486  1.0000  -0.6486   0.0000   0.0000   0.0000   0.5452
   0.000   0.4237   0.01789   0.01090  -0.1156  0.9370  1.0000  -0.5565   0.0000   0.0000   0.0000   0.5224
   0.250   0.4646   0.01796   0.01078  -0.1180  0.9256  1.0000  -0.5833   0.0000   0.0000   0.0000   0.5033
   0.500   0.5051   0.01797   0.01066  -0.1202  0.9142  1.0000  -0.6109   0.0000   0.0000   0.0000   0.4871
   0.750   0.5456   0.01791   0.01049  -0.1223  0.9029  1.0000  -0.6398   0.0000   0.0000   0.0000   0.4731
   1.000   0.5864   0.01778   0.01029  -0.1244  0.8919  1.0000  -0.6703   0.0000   0.0000   0.0000   0.4607
   1.250   0.6269   0.01758   0.01004  -0.1262  0.8811  1.0000  -0.7023   0.0000   0.0000   0.0000   0.4497
   1.500   0.6653   0.01735   0.00978  -0.1275  0.8697  1.0000  -0.7346   0.0000   0.0000   0.0000   0.4398
   1.750   0.7029   0.01710   0.00952  -0.1285  0.8581  1.0000  -0.7681   0.0000   0.0000   0.0000   0.4308
   2.000   0.7398   0.01683   0.00926  -0.1294  0.8462  1.0000  -0.8033   0.0000   0.0000   0.0000   0.4226
   2.250   0.7761   0.01656   0.00899  -0.1300  0.8340  1.0000  -0.8415   0.0000   0.0000   0.0000   0.4150
   2.500   0.8061   0.01650   0.00895  -0.1296  0.8180  1.0000  -0.8779   0.0000   0.0000   0.0000   0.4081
   2.750   0.8395   0.01633   0.00879  -0.1297  0.8038  1.0000  -0.9261   0.0000   0.0000   0.0000   0.4016
   3.000   0.8704   0.01627   0.00878  -0.1294  0.7881  1.0000  -0.9914   0.0000   0.0000   0.0000   0.3956
   3.250   0.9007   0.01626   0.00878  -0.1290  0.7717  1.0000  -1.0757   0.0000   0.0000   0.0000   0.3899
   3.500   0.9296   0.01633   0.00887  -0.1284  0.7546  1.0000  -1.1998   0.0000   0.0000   0.0000   0.3845
   3.750   0.9594   0.01639   0.00898  -0.1279  0.7379  1.0000  -1.3469   0.0000   0.0000   0.0000   0.3794
   4.000   0.9863   0.01658   0.00921  -0.1270  0.7194  1.0000  -1.4907   0.0000   0.0000   0.0000   0.3747
   4.250   1.0139   0.01676   0.00942  -0.1261  0.7010  1.0000  -1.6567   0.0000   0.0000   0.0000   0.3701
   4.500   1.0416   0.01693   0.00961  -0.1252  0.6820  1.0000  -1.8425   0.0000   0.0000   0.0000   0.3656
   4.750   1.0680   0.01712   0.00982  -0.1240  0.6610  1.0000  -2.0297   0.0000   0.0000   0.0000   0.3612
   5.000   1.0926   0.01733   0.01015  -0.1225  0.6374  1.0000  -2.2157   0.0000   0.0000   0.0000   0.3570
   5.250   1.1166   0.01753   0.01037  -0.1208  0.6114  1.0000  -2.4061   0.0000   0.0000   0.0000   0.3528
   5.500   1.1394   0.01769   0.01053  -0.1188  0.5813  1.0000  -2.6278   0.0000   0.0000   0.0000   0.3485
   5.750   1.1606   0.01788   0.01073  -0.1166  0.5480  1.0000  -2.8510   0.0000   0.0000   0.0000   0.3444
   6.000   1.1807   0.01814   0.01099  -0.1142  0.5119  1.0000  -3.0723   0.0000   0.0000   0.0000   0.3404
   6.250   1.1969   0.01845   0.01124  -0.1112  0.4625  1.0000  -3.2794   0.0000   0.0000   0.0000   0.3362
   6.500   1.2089   0.01899   0.01159  -0.1076  0.3909  1.0000  -3.4641   0.0000   0.0000   0.0000   0.3320
   6.750   1.2130   0.02043   0.01237  -0.1033  0.2636  1.0000  -3.5958   0.0000   0.0000   0.0000   0.3278
   7.000   1.2062   0.02372   0.01449  -0.0981  0.1330  1.0000  -3.6334   0.0000   0.0000   0.0000   0.3237
   7.250   1.2086   0.02626   0.01681  -0.0939  0.0973  1.0000  -3.6809   0.0000   0.0000   0.0000   0.3198
   7.500   1.2160   0.02835   0.01879  -0.0904  0.0828  1.0000  -3.7588   0.0000   0.0000   0.0000   0.3161
   7.750   1.2275   0.03030   0.02067  -0.0877  0.0723  1.0000  -3.8921   0.0000   0.0000   0.0000   0.3129
   8.000   1.2440   0.03224   0.02264  -0.0856  0.0643  1.0000  -4.0692   0.0000   0.0000   0.0000   0.3100
   8.250   1.2691   0.03489   0.02523  -0.0848  0.0596  1.0000  -4.2640   0.0000   0.0000   0.0000   0.3076
   8.500   1.2976   0.03752   0.02809  -0.0840  0.0561  1.0000  -4.4425   0.0000   0.0000   0.0000   0.3052
   8.750   1.3249   0.04051   0.03124  -0.0835  0.0533  1.0000  -4.6266   0.0000   0.0000   0.0000   0.3032
   9.000   1.3442   0.04391   0.03491  -0.0822  0.0503  1.0000  -4.7709   0.0000   0.0000   0.0000   0.3010
   9.250   1.3548   0.04663   0.03816  -0.0794  0.0478  1.0000  -4.8568   0.0000   0.0000   0.0000   0.2981
   9.500   1.3646   0.05022   0.04221  -0.0767  0.0472  1.0000  -4.9108   0.0000   0.0000   0.0000   0.2955
   9.750   1.3683   0.05401   0.04648  -0.0736  0.0471  1.0000  -4.9314   0.0000   0.0000   0.0000   0.2928
  10.000   1.3661   0.05792   0.05083  -0.0702  0.0473  1.0000  -4.9260   0.0000   0.0000   0.0000   0.2900
  10.250   1.3590   0.06188   0.05519  -0.0666  0.0478  1.0000  -4.9034   0.0000   0.0000   0.0000   0.2874
  10.500   1.3464   0.06561   0.05924  -0.0627  0.0482  1.0000  -4.8707   0.0000   0.0000   0.0000   0.2847
  10.750   1.3308   0.06941   0.06333  -0.0592  0.0487  1.0000  -4.8317   0.0000   0.0000   0.0000   0.2823
  11.000   1.3131   0.07343   0.06761  -0.0564  0.0492  1.0000  -4.7866   0.0000   0.0000   0.0000   0.2805
  11.250   1.2948   0.07778   0.07219  -0.0545  0.0497  1.0000  -4.7390   0.0000   0.0000   0.0000   0.2794
  11.500   1.2769   0.08253   0.07713  -0.0536  0.0501  1.0000  -4.6907   0.0000   0.0000   0.0000   0.2789
  11.750   1.2619   0.08772   0.08247  -0.0535  0.0507  1.0000  -4.6494   0.0000   0.0000   0.0000   0.2790
  12.000   1.2584   0.09324   0.08810  -0.0534  0.0517  1.0000  -4.6410   0.0000   0.0000   0.0000   0.2787
  12.250   1.2209   0.09898   0.09414  -0.0563  0.0522  1.0000  -4.4824   0.0000   0.0000   0.0000   0.2820
  12.500   1.1738   0.10869   0.10415  -0.0640  0.0531  1.0000  -4.1991   0.0000   0.0000   0.0000   0.2901
  12.750   1.1208   0.12492   0.12057  -0.0775  0.0556  1.0000  -3.7285   0.0000   0.0000   0.0000   0.3048
  13.000   1.0990   0.13726   0.13291  -0.0856  0.0585  1.0000  -3.4429   0.0000   0.0000   0.0000   0.3135
  13.250   1.0993   0.14248   0.13812  -0.0868  0.0602  1.0000  -3.4286   0.0000   0.0000   0.0000   0.3143


