xflr5 v6.61

 Calculated polar for: BLD_0

 1 1 Reynolds number fixed          Mach number fixed         

 xtrf =   1.000 (top)        1.000 (bottom)
 Mach =   0.200     Re =     0.050 e 6     Ncrit =   9.000

  alpha     CL        CD       CDp       Cm    Top Xtr Bot Xtr   Cpmin    Chinge    XCp    
 ------- -------- --------- --------- -------- ------- ------- -------- --------- ---------
 -18.500  -0.5512   0.23344   0.22505  -0.0011  1.0000  0.0573  -1.2960   0.0000   0.0000   0.0000   0.2373
 -18.000  -0.5353   0.22708   0.21871  -0.0031  1.0000  0.0597  -1.2457   0.0000   0.0000   0.0000   0.2338
 -17.500  -0.5205   0.22165   0.21326  -0.0054  1.0000  0.0623  -1.2439   0.0000   0.0000   0.0000   0.2295
 -17.000  -0.5073   0.21719   0.20884  -0.0081  1.0000  0.0647  -1.2691   0.0000   0.0000   0.0000   0.2243
 -16.500  -0.4987   0.21532   0.20703  -0.0115  1.0000  0.0657  -1.3312   0.0000   0.0000   0.0000   0.2178
 -16.000  -0.4796   0.20564   0.19740  -0.0122  1.0000  0.0676  -1.2821   0.0000   0.0000   0.0000   0.2153
 -15.500  -0.4646   0.19949   0.19128  -0.0136  1.0000  0.0707  -1.2618   0.0000   0.0000   0.0000   0.2117
 -15.000  -0.4524   0.19464   0.18649  -0.0157  1.0000  0.0740  -1.2735   0.0000   0.0000   0.0000   0.2067
 -14.500  -0.4469   0.19287   0.18479  -0.0186  1.0000  0.0756  -1.3342   0.0000   0.0000   0.0000   0.2001
 -14.000  -0.4278   0.18332   0.17530  -0.0188  1.0000  0.0780  -1.2743   0.0000   0.0000   0.0000   0.1978
 -13.500  -0.4145   0.17743   0.16941  -0.0198  1.0000  0.0825  -1.2498   0.0000   0.0000   0.0000   0.1942
 -13.000  -0.4091   0.17450   0.16656  -0.0220  1.0000  0.0860  -1.2889   0.0000   0.0000   0.0000   0.1885
 -12.500  -0.3937   0.16668   0.15882  -0.0223  1.0000  0.0891  -1.2444   0.0000   0.0000   0.0000   0.1859
 -12.000  -0.3829   0.16131   0.15351  -0.0230  1.0000  0.0945  -1.2250   0.0000   0.0000   0.0000   0.1826
 -11.500  -0.3855   0.15990   0.15223  -0.0253  1.0000  0.0970  -1.2883   0.0000   0.0000   0.0000   0.1777
 -11.000  -0.3638   0.15012   0.14250  -0.0241  1.0000  0.1020  -1.1948   0.0000   0.0000   0.0000   0.1767
 -10.500  -0.3614   0.14665   0.13916  -0.0253  1.0000  0.1070  -1.2147   0.0000   0.0000   0.0000   0.1736
 -10.000  -0.3494   0.13976   0.13236  -0.0249  1.0000  0.1108  -1.1992   0.0000   0.0000   0.0000   0.1725
  -9.750  -0.3447   0.13700   0.12964  -0.0247  1.0000  0.1142  -1.1980   0.0000   0.0000   0.0000   0.1722
  -9.500  -0.3451   0.13539   0.12811  -0.0250  1.0000  0.1172  -1.2236   0.0000   0.0000   0.0000   0.1715
  -9.250  -0.3521   0.13523   0.12805  -0.0258  1.0000  0.1185  -1.2753   0.0000   0.0000   0.0000   0.1712
  -9.000  -0.3384   0.12971   0.12249  -0.0246  1.0000  0.1213  -1.2372   0.0000   0.0000   0.0000   0.1716
  -8.750  -0.3338   0.12693   0.11977  -0.0241  1.0000  0.1251  -1.2335   0.0000   0.0000   0.0000   0.1723
  -8.500  -0.3370   0.12565   0.11857  -0.0242  1.0000  0.1283  -1.2633   0.0000   0.0000   0.0000   0.1730
  -8.250  -0.3478   0.12577   0.11882  -0.0245  1.0000  0.1295  -1.3189   0.0000   0.0000   0.0000   0.1748
  -8.000  -0.3299   0.11979   0.11285  -0.0228  1.0000  0.1336  -1.2649   0.0000   0.0000   0.0000   0.1757
  -7.750  -0.3306   0.11788   0.11102  -0.0223  1.0000  0.1378  -1.2774   0.0000   0.0000   0.0000   0.1778
  -7.500  -0.3422   0.11778   0.11104  -0.0219  1.0000  0.1400  -1.3261   0.0000   0.0000   0.0000   0.1815
  -7.250  -0.3322   0.11341   0.10672  -0.0207  1.0000  0.1431  -1.3018   0.0000   0.0000   0.0000   0.1834
  -7.000  -0.3318   0.11118   0.10456  -0.0194  1.0000  0.1477  -1.3030   0.0000   0.0000   0.0000   0.1872
  -6.750  -0.3452   0.11092   0.10444  -0.0182  1.0000  0.1505  -1.3445   0.0000   0.0000   0.0000   0.1935
  -6.250  -0.3421   0.10538   0.09905  -0.0150  1.0000  0.1580  -1.3346   0.0000   0.0000   0.0000   0.2025
  -6.000  -0.3544   0.10491   0.09871  -0.0148  1.0000  0.1615  -1.3772   0.0000   0.0000   0.0000   0.2051
  -5.750  -0.3492   0.10141   0.09528  -0.0130  1.0000  0.1654  -1.3606   0.0000   0.0000   0.0000   0.2096
  -5.500  -0.3518   0.09971   0.09367  -0.0130  1.0000  0.1717  -1.3754   0.0000   0.0000   0.0000   0.2100
  -5.250  -0.3494   0.09684   0.09089  -0.0120  1.0000  0.1766  -1.3705   0.0000   0.0000   0.0000   0.2129
  -5.000  -0.3513   0.09549   0.08962  -0.0147  1.0000  0.1839  -1.4038   0.0000   0.0000   0.0000   0.2053
  -4.750  -0.3456   0.09210   0.08629  -0.0117  1.0000  0.1919  -1.3709   0.0000   0.0000   0.0000   0.2136
  -4.500  -0.3421   0.08946   0.08373  -0.0118  1.0000  0.1994  -1.3696   0.0000   0.0000   0.0000   0.2131
  -4.250  -0.3372   0.08694   0.08128  -0.0133  1.0000  0.2084  -1.3751   0.0000   0.0000   0.0000   0.2080
  -4.000  -0.3299   0.08430   0.07870  -0.0150  1.0000  0.2186  -1.3742   0.0000   0.0000   0.0000   0.2022
  -3.750  -0.3208   0.08150   0.07595  -0.0162  1.0000  0.2294  -1.3660   0.0000   0.0000   0.0000   0.1971
  -3.500  -0.3104   0.07860   0.07303  -0.0172  1.0000  0.2406  -1.3528   0.0000   0.0000   0.0000   0.1921
  -3.250  -0.2994   0.07567   0.07016  -0.0177  1.0000  0.2528  -1.3340   0.0000   0.0000   0.0000   0.1886
  -3.000  -0.2866   0.07283   0.06734  -0.0185  1.0000  0.2673  -1.3129   0.0000   0.0000   0.0000   0.1829
  -2.250  -0.2344   0.06412   0.05870  -0.0241  1.0000  0.3292  -1.2344   0.0000   0.0000   0.0000   0.1443
  -1.750   0.0706   0.03980   0.03195  -0.1010  1.0000  0.1279  -1.5822   0.0000   0.0000   0.0000   1.6873
  -1.500   0.1349   0.03565   0.02702  -0.1098  1.0000  0.1263  -1.6124   0.0000   0.0000   0.0000   1.0672
  -1.250   0.1777   0.03379   0.02474  -0.1136  1.0000  0.1460  -1.5684   0.0000   0.0000   0.0000   0.8913
  -1.000   0.2158   0.03265   0.02330  -0.1163  1.0000  0.1833  -1.5083   0.0000   0.0000   0.0000   0.7902
  -0.750   0.2530   0.03142   0.02186  -0.1183  1.0000  0.2129  -1.4338   0.0000   0.0000   0.0000   0.7185
  -0.500   0.2897   0.03050   0.02071  -0.1202  1.0000  0.2467  -1.3294   0.0000   0.0000   0.0000   0.6652
  -0.250   0.3208   0.03004   0.02024  -0.1210  1.0000  0.2995  -1.1984   0.0000   0.0000   0.0000   0.6272
   0.000   0.3507   0.02970   0.02001  -0.1215  1.0000  0.3777  -1.0657   0.0000   0.0000   0.0000   0.5962
   0.250   0.3809   0.02928   0.01998  -0.1219  1.0000  0.5002  -0.9482   0.0000   0.0000   0.0000   0.5695
   0.500   0.3960   0.02785   0.01987  -0.1182  1.0000  0.8069  -0.8627   0.0000   0.0000   0.0000   0.5474
   1.000   0.4363   0.02950   0.02058  -0.1188  1.0000  1.0000  -0.6580   0.0000   0.0000   0.0000   0.5206
   1.250   0.4567   0.03059   0.02143  -0.1189  1.0000  1.0000  -0.5954   0.0000   0.0000   0.0000   0.5085
   1.500   0.4759   0.03177   0.02244  -0.1191  1.0000  1.0000  -0.6160   0.0000   0.0000   0.0000   0.4980
   1.750   0.4940   0.03306   0.02359  -0.1192  1.0000  1.0000  -0.6368   0.0000   0.0000   0.0000   0.4889
   2.000   0.5339   0.03473   0.02510  -0.1233  0.9888  1.0000  -0.6738   0.0000   0.0000   0.0000   0.4783
   2.250   0.5876   0.03607   0.02632  -0.1295  0.9660  1.0000  -0.7247   0.0000   0.0000   0.0000   0.4674
   2.500   0.6396   0.03701   0.02717  -0.1348  0.9440  1.0000  -0.7811   0.0000   0.0000   0.0000   0.4575
   2.750   0.6921   0.03765   0.02776  -0.1396  0.9220  1.0000  -0.8433   0.0000   0.0000   0.0000   0.4483
   3.000   0.7448   0.03798   0.02809  -0.1440  0.9000  1.0000  -0.9111   0.0000   0.0000   0.0000   0.4397
   3.250   0.7922   0.03809   0.02825  -0.1472  0.8764  1.0000  -0.9750   0.0000   0.0000   0.0000   0.4319
   3.500   0.8390   0.03797   0.02820  -0.1497  0.8524  1.0000  -1.0441   0.0000   0.0000   0.0000   0.4243
   3.750   0.8891   0.03748   0.02781  -0.1522  0.8290  1.0000  -1.1245   0.0000   0.0000   0.0000   0.4168
   4.000   0.9425   0.03650   0.02699  -0.1545  0.8059  1.0000  -1.2137   0.0000   0.0000   0.0000   0.4093
   4.250   1.0001   0.03484   0.02550  -0.1566  0.7832  1.0000  -1.3173   0.0000   0.0000   0.0000   0.4016
   4.500   1.0669   0.03238   0.02330  -0.1591  0.7599  1.0000  -1.4516   0.0000   0.0000   0.0000   0.3939
   4.750   1.1268   0.03039   0.02149  -0.1609  0.7293  1.0000  -1.6040   0.0000   0.0000   0.0000   0.3872
   5.000   1.1869   0.02853   0.01972  -0.1624  0.6920  1.0000  -1.7604   0.0000   0.0000   0.0000   0.3810
   5.250   1.2347   0.02766   0.01892  -0.1627  0.6471  1.0000  -1.8955   0.0000   0.0000   0.0000   0.3756
   5.500   1.2724   0.02764   0.01876  -0.1620  0.6000  1.0000  -2.0478   0.0000   0.0000   0.0000   0.3708
   5.750   1.3035   0.02816   0.01909  -0.1606  0.5545  1.0000  -2.2223   0.0000   0.0000   0.0000   0.3664
   6.000   1.3294   0.02907   0.01983  -0.1589  0.5121  1.0000  -2.3820   0.0000   0.0000   0.0000   0.3623
   6.250   1.3541   0.03016   0.02076  -0.1571  0.4730  1.0000  -2.5394   0.0000   0.0000   0.0000   0.3584
   6.500   1.3766   0.03143   0.02192  -0.1551  0.4370  1.0000  -2.6901   0.0000   0.0000   0.0000   0.3548
   6.750   1.3988   0.03283   0.02321  -0.1533  0.4042  1.0000  -2.8503   0.0000   0.0000   0.0000   0.3513
   7.000   1.4208   0.03432   0.02478  -0.1515  0.3741  1.0000  -3.0260   0.0000   0.0000   0.0000   0.3480
   7.250   1.4422   0.03594   0.02638  -0.1497  0.3468  1.0000  -3.1989   0.0000   0.0000   0.0000   0.3448
   7.500   1.4648   0.03769   0.02808  -0.1481  0.3219  1.0000  -3.3770   0.0000   0.0000   0.0000   0.3418
   7.750   1.4821   0.03951   0.03001  -0.1458  0.2982  1.0000  -3.5328   0.0000   0.0000   0.0000   0.3387
   8.000   1.4988   0.04133   0.03191  -0.1434  0.2755  1.0000  -3.6875   0.0000   0.0000   0.0000   0.3357
   8.250   1.5140   0.04315   0.03381  -0.1409  0.2535  1.0000  -3.8374   0.0000   0.0000   0.0000   0.3327
   8.500   1.5266   0.04486   0.03557  -0.1380  0.2315  1.0000  -3.9800   0.0000   0.0000   0.0000   0.3296
   8.750   1.5385   0.04671   0.03748  -0.1351  0.2108  1.0000  -4.1153   0.0000   0.0000   0.0000   0.3267
   9.000   1.5498   0.04856   0.03934  -0.1322  0.1909  1.0000  -4.2462   0.0000   0.0000   0.0000   0.3238
   9.250   1.5582   0.05004   0.04073  -0.1291  0.1708  1.0000  -4.3777   0.0000   0.0000   0.0000   0.3209
   9.500   1.5587   0.05273   0.04383  -0.1250  0.1567  1.0000  -4.4308   0.0000   0.0000   0.0000   0.3179
   9.750   1.5638   0.05609   0.04759  -0.1217  0.1448  1.0000  -4.4768   0.0000   0.0000   0.0000   0.3152
  10.000   1.5642   0.05911   0.05085  -0.1180  0.1337  1.0000  -4.5183   0.0000   0.0000   0.0000   0.3125
  10.250   1.5636   0.06261   0.05461  -0.1145  0.1252  1.0000  -4.5417   0.0000   0.0000   0.0000   0.3099
  10.500   1.5707   0.06634   0.05843  -0.1121  0.1174  1.0000  -4.5868   0.0000   0.0000   0.0000   0.3076
  10.750   1.5482   0.07060   0.06323  -0.1069  0.1158  1.0000  -4.5200   0.0000   0.0000   0.0000   0.3050
  11.000   1.5241   0.07493   0.06796  -0.1023  0.1147  1.0000  -4.4573   0.0000   0.0000   0.0000   0.3028
  11.250   1.4982   0.07967   0.07305  -0.0986  0.1141  1.0000  -4.3896   0.0000   0.0000   0.0000   0.3012
  11.500   1.4700   0.08500   0.07869  -0.0962  0.1141  1.0000  -4.3117   0.0000   0.0000   0.0000   0.3005
  11.750   1.4397   0.09107   0.08504  -0.0953  0.1147  1.0000  -4.2214   0.0000   0.0000   0.0000   0.3010
  12.000   1.4081   0.09803   0.09222  -0.0961  0.1156  1.0000  -4.1177   0.0000   0.0000   0.0000   0.3027
  12.250   1.3778   0.10585   0.10020  -0.0987  0.1167  1.0000  -4.0043   0.0000   0.0000   0.0000   0.3057
  12.500   1.3502   0.11448   0.10884  -0.1027  0.1176  1.0000  -3.8814   0.0000   0.0000   0.0000   0.3098
  13.000   1.2102   0.16374   0.15789  -0.1408  0.1613  1.0000  -2.7523   0.0000   0.0000   0.0000   0.3509
  13.250   1.2024   0.17159   0.16571  -0.1456  0.1615  1.0000  -2.6411   0.0000   0.0000   0.0000   0.3555
  13.500   1.1947   0.17923   0.17331  -0.1507  0.1626  1.0000  -2.5245   0.0000   0.0000   0.0000   0.3603
  13.750   1.1929   0.18455   0.17862  -0.1539  0.1556  1.0000  -2.4701   0.0000   0.0000   0.0000   0.3628
  14.000   1.1938   0.19330   0.18738  -0.1586  0.1696  1.0000  -2.3477   0.0000   0.0000   0.0000   0.3665
  14.500   1.1822   0.21098   0.20504  -0.1729  0.2262  1.0000  -2.0322   0.0000   0.0000   0.0000   0.3796
  14.750   0.9425   0.20763   0.20247  -0.1482  0.2455  1.0000  -1.4947   0.0000   0.0000   0.0000   0.3916
  15.000   1.1950   0.21983   0.21392  -0.1768  0.2150  1.0000  -1.9818   0.0000   0.0000   0.0000   0.3805
  15.500   1.2040   0.22751   0.22160  -0.1817  0.2052  1.0000  -1.9250   0.0000   0.0000   0.0000   0.3827
  16.000   1.2147   0.23506   0.22915  -0.1865  0.1962  1.0000  -1.8955   0.0000   0.0000   0.0000   0.3845
  16.500   1.2282   0.24278   0.23689  -0.1911  0.1880  1.0000  -1.8951   0.0000   0.0000   0.0000   0.3857
  17.000   1.2466   0.25138   0.24554  -0.1946  0.1802  1.0000  -1.9193   0.0000   0.0000   0.0000   0.3853
  17.500   1.2693   0.26126   0.25547  -0.1972  0.1707  1.0000  -1.9663   0.0000   0.0000   0.0000   0.3837
  18.000   1.2853   0.26885   0.26310  -0.2011  0.1601  1.0000  -1.9808   0.0000   0.0000   0.0000   0.3839
  18.500   1.2938   0.27304   0.26730  -0.2071  0.1506  1.0000  -1.9718   0.0000   0.0000   0.0000   0.3865
  19.000   1.3036   0.27856   0.27289  -0.2135  0.1444  1.0000  -1.9777   0.0000   0.0000   0.0000   0.3891
  19.500   1.3261   0.28866   0.28306  -0.2160  0.1385  1.0000  -2.1053   0.0000   0.0000   0.0000   0.3873
  20.000   1.3357   0.29254   0.28696  -0.2226  0.1313  1.0000  -2.1108   0.0000   0.0000   0.0000   0.3900


