xflr5 v6.61

 Calculated polar for: BLD_0

 1 1 Reynolds number fixed          Mach number fixed         

 xtrf =   1.000 (top)        1.000 (bottom)
 Mach =   0.200     Re =     0.090 e 6     Ncrit =   9.000

  alpha     CL        CD       CDp       Cm    Top Xtr Bot Xtr   Cpmin    Chinge    XCp    
 ------- -------- --------- --------- -------- ------- ------- -------- --------- ---------
 -21.500  -0.4285   0.23077   0.22528  -0.0066  1.0000  0.0290  -0.9637   0.0000   0.0000   0.0000   0.2278
 -21.000  -0.4195   0.22534   0.21984  -0.0078  1.0000  0.0298  -0.9314   0.0000   0.0000   0.0000   0.2248
 -20.500  -0.4114   0.22100   0.21549  -0.0093  1.0000  0.0308  -0.9171   0.0000   0.0000   0.0000   0.2211
 -20.000  -0.4036   0.21691   0.21139  -0.0108  1.0000  0.0319  -0.9082   0.0000   0.0000   0.0000   0.2171
 -19.500  -0.3959   0.21293   0.20740  -0.0122  1.0000  0.0330  -0.9015   0.0000   0.0000   0.0000   0.2130
 -19.000  -0.3884   0.20904   0.20351  -0.0137  1.0000  0.0343  -0.8965   0.0000   0.0000   0.0000   0.2088
 -18.500  -0.3812   0.20535   0.19978  -0.0151  1.0000  0.0356  -0.8956   0.0000   0.0000   0.0000   0.2044
 -18.000  -0.3755   0.20263   0.19707  -0.0169  1.0000  0.0368  -0.9168   0.0000   0.0000   0.0000   0.1993
 -17.500  -0.3743   0.20228   0.19672  -0.0190  1.0000  0.0372  -1.0050   0.0000   0.0000   0.0000   0.1936
 -17.000  -0.3671   0.19746   0.19193  -0.0200  1.0000  0.0377  -1.0287   0.0000   0.0000   0.0000   0.1899
 -16.500  -0.3549   0.19067   0.18513  -0.0199  1.0000  0.0390  -0.9726   0.0000   0.0000   0.0000   0.1881
 -16.000  -0.3480   0.18697   0.18144  -0.0206  1.0000  0.0406  -0.9733   0.0000   0.0000   0.0000   0.1850
 -15.500  -0.3422   0.18370   0.17817  -0.0214  1.0000  0.0423  -0.9898   0.0000   0.0000   0.0000   0.1817
 -15.000  -0.3368   0.18035   0.17483  -0.0223  1.0000  0.0441  -1.0173   0.0000   0.0000   0.0000   0.1780
 -14.500  -0.3346   0.17781   0.17227  -0.0237  1.0000  0.0454  -1.0767   0.0000   0.0000   0.0000   0.1736
 -14.000  -0.3386   0.17684   0.17132  -0.0253  1.0000  0.0459  -1.1688   0.0000   0.0000   0.0000   0.1697
 -13.500  -0.3292   0.16991   0.16443  -0.0254  1.0000  0.0466  -1.1543   0.0000   0.0000   0.0000   0.1672
 -13.000  -0.3172   0.16312   0.15766  -0.0247  1.0000  0.0484  -1.0836   0.0000   0.0000   0.0000   0.1664
 -12.500  -0.3109   0.15823   0.15279  -0.0249  1.0000  0.0505  -1.0683   0.0000   0.0000   0.0000   0.1645
 -12.000  -0.3060   0.15345   0.14806  -0.0252  1.0000  0.0529  -1.0706   0.0000   0.0000   0.0000   0.1622
 -11.500  -0.3047   0.14944   0.14409  -0.0261  1.0000  0.0550  -1.1093   0.0000   0.0000   0.0000   0.1592
 -11.000  -0.3120   0.14719   0.14192  -0.0276  1.0000  0.0557  -1.1981   0.0000   0.0000   0.0000   0.1567
 -10.500  -0.2961   0.13846   0.13325  -0.0261  1.0000  0.0572  -1.1078   0.0000   0.0000   0.0000   0.1569
 -10.000  -0.2879   0.13269   0.12754  -0.0251  1.0000  0.0600  -1.0533   0.0000   0.0000   0.0000   0.1579
  -9.750  -0.3461   0.13291   0.12740  -0.0245  1.0000  0.0579  -1.2651   0.0000   0.0000   0.0000   0.1728
  -9.500  -0.2853   0.12780   0.12268  -0.0248  1.0000  0.0636  -1.0796   0.0000   0.0000   0.0000   0.1584
  -9.250  -0.3379   0.12755   0.12212  -0.0240  1.0000  0.0610  -1.2441   0.0000   0.0000   0.0000   0.1731
  -9.000  -0.2962   0.12522   0.12022  -0.0258  1.0000  0.0655  -1.1931   0.0000   0.0000   0.0000   0.1588
  -8.750  -0.3370   0.12353   0.11816  -0.0243  1.0000  0.0647  -1.2972   0.0000   0.0000   0.0000   0.1723
  -8.500  -0.2822   0.11739   0.11247  -0.0234  1.0000  0.0686  -1.1309   0.0000   0.0000   0.0000   0.1631
  -8.250  -0.3536   0.12255   0.11735  -0.0255  1.0000  0.0657  -1.4409   0.0000   0.0000   0.0000   0.1732
  -8.000  -0.2818   0.11266   0.10783  -0.0221  1.0000  0.0731  -1.1458   0.0000   0.0000   0.0000   0.1678
  -7.750  -0.3295   0.11323   0.10808  -0.0220  1.0000  0.0703  -1.3117   0.0000   0.0000   0.0000   0.1785
  -7.500  -0.3007   0.11067   0.10600  -0.0220  1.0000  0.0754  -1.2638   0.0000   0.0000   0.0000   0.1739
  -7.250  -0.3366   0.11001   0.10500  -0.0209  1.0000  0.0744  -1.3687   0.0000   0.0000   0.0000   0.1837
  -6.250  -0.3495   0.10159   0.09687  -0.0150  1.0000  0.0790  -1.4131   0.0000   0.0000   0.0000   0.2038
  -6.000  -0.3534   0.09973   0.09508  -0.0132  1.0000  0.0809  -1.4166   0.0000   0.0000   0.0000   0.2094
  -5.750  -0.3564   0.09781   0.09323  -0.0127  1.0000  0.0832  -1.4353   0.0000   0.0000   0.0000   0.2113
  -5.500  -0.3605   0.09630   0.09181  -0.0152  1.0000  0.0856  -1.4989   0.0000   0.0000   0.0000   0.2051
  -5.000  -0.3555   0.09048   0.08610  -0.0155  1.0000  0.0883  -1.5151   0.0000   0.0000   0.0000   0.2037
  -4.750  -0.3510   0.08788   0.08355  -0.0144  1.0000  0.0910  -1.4896   0.0000   0.0000   0.0000   0.2065
  -4.500  -0.3428   0.08519   0.08090  -0.0178  1.0000  0.0952  -1.5145   0.0000   0.0000   0.0000   0.1955
  -4.000  -0.3170   0.07580   0.07194  -0.0137  1.0000  0.1019  -1.3773   0.0000   0.0000   0.0000   0.2052
  -3.750  -0.2861   0.07445   0.07015  -0.0364  1.0000  0.1082  -1.5949   0.0000   0.0000   0.0000   0.1200
  -3.500  -0.2913   0.06895   0.06512  -0.0220  1.0000  0.1103  -1.4059   0.0000   0.0000   0.0000   0.1728
  -3.250  -0.2556   0.06453   0.06056  -0.0348  1.0000  0.1192  -1.4528   0.0000   0.0000   0.0000   0.1123
  -3.000  -0.2534   0.06189   0.05799  -0.0305  1.0000  0.1215  -1.3896   0.0000   0.0000   0.0000   0.1278
  -2.000   0.0231   0.04049   0.03465  -0.0960  1.0000  0.1076  -1.6331   0.0000   0.0000   0.0000   4.4288
  -1.750   0.1238   0.03126   0.02402  -0.1120  1.0000  0.0744  -1.8212   0.0000   0.0000   0.0000   1.1592
  -1.500   0.1737   0.02871   0.02077  -0.1166  1.0000  0.0744  -1.8131   0.0000   0.0000   0.0000   0.9245
  -1.250   0.2143   0.02714   0.01879  -0.1192  1.0000  0.0790  -1.7571   0.0000   0.0000   0.0000   0.8084
  -1.000   0.2507   0.02615   0.01759  -0.1209  1.0000  0.0922  -1.6955   0.0000   0.0000   0.0000   0.7337
  -0.750   0.2835   0.02565   0.01700  -0.1221  1.0000  0.1174  -1.6002   0.0000   0.0000   0.0000   0.6815
  -0.500   0.3113   0.02571   0.01718  -0.1229  1.0000  0.1538  -1.4485   0.0000   0.0000   0.0000   0.6451
  -0.250   0.3634   0.02576   0.01747  -0.1280  0.9924  0.2366  -1.2083   0.0000   0.0000   0.0000   0.6021
   0.000   0.4143   0.02567   0.01776  -0.1327  0.9848  0.3539  -0.9885   0.0000   0.0000   0.0000   0.5698
   0.250   0.4628   0.02529   0.01806  -0.1365  0.9772  0.5456  -0.7983   0.0000   0.0000   0.0000   0.5443
   0.500   0.4922   0.02439   0.01787  -0.1361  0.9643  1.0000  -0.6584   0.0000   0.0000   0.0000   0.5254
   0.750   0.5402   0.02469   0.01783  -0.1400  0.9528  1.0000  -0.6380   0.0000   0.0000   0.0000   0.5078
   1.000   0.5880   0.02486   0.01776  -0.1437  0.9416  1.0000  -0.6831   0.0000   0.0000   0.0000   0.4927
   1.250   0.6301   0.02491   0.01767  -0.1463  0.9280  1.0000  -0.7260   0.0000   0.0000   0.0000   0.4802
   1.500   0.6738   0.02484   0.01749  -0.1489  0.9148  1.0000  -0.7726   0.0000   0.0000   0.0000   0.4688
   1.750   0.7199   0.02460   0.01716  -0.1518  0.9023  1.0000  -0.8264   0.0000   0.0000   0.0000   0.4584
   2.000   0.7672   0.02417   0.01668  -0.1546  0.8901  1.0000  -0.8865   0.0000   0.0000   0.0000   0.4488
   2.250   0.8107   0.02368   0.01619  -0.1565  0.8763  1.0000  -0.9487   0.0000   0.0000   0.0000   0.4401
   2.500   0.8530   0.02310   0.01564  -0.1581  0.8618  1.0000  -1.0109   0.0000   0.0000   0.0000   0.4321
   2.750   0.8996   0.02222   0.01479  -0.1601  0.8491  1.0000  -1.0813   0.0000   0.0000   0.0000   0.4245
   3.000   0.9486   0.02109   0.01371  -0.1622  0.8366  1.0000  -1.1627   0.0000   0.0000   0.0000   0.4172
   3.250   0.9922   0.02016   0.01287  -0.1634  0.8191  1.0000  -1.2413   0.0000   0.0000   0.0000   0.4107
   3.500   1.0431   0.01905   0.01183  -0.1658  0.8005  1.0000  -1.3359   0.0000   0.0000   0.0000   0.4046
   3.750   1.0913   0.01822   0.01104  -0.1678  0.7748  1.0000  -1.4283   0.0000   0.0000   0.0000   0.3992
   4.000   1.1372   0.01763   0.01047  -0.1695  0.7412  1.0000  -1.5484   0.0000   0.0000   0.0000   0.3942
   4.250   1.1771   0.01743   0.01016  -0.1703  0.6997  1.0000  -1.6650   0.0000   0.0000   0.0000   0.3894
   4.500   1.2103   0.01758   0.01015  -0.1700  0.6540  1.0000  -1.7717   0.0000   0.0000   0.0000   0.3849
   4.750   1.2384   0.01800   0.01034  -0.1689  0.6076  1.0000  -1.8704   0.0000   0.0000   0.0000   0.3805
   5.000   1.2621   0.01862   0.01079  -0.1672  0.5620  1.0000  -1.9618   0.0000   0.0000   0.0000   0.3763
   5.250   1.2838   0.01935   0.01129  -0.1652  0.5189  1.0000  -2.0871   0.0000   0.0000   0.0000   0.3722
   5.500   1.3040   0.02016   0.01190  -0.1631  0.4780  1.0000  -2.2310   0.0000   0.0000   0.0000   0.3683
   5.750   1.3238   0.02104   0.01258  -0.1610  0.4402  1.0000  -2.3759   0.0000   0.0000   0.0000   0.3645
   6.000   1.3432   0.02197   0.01334  -0.1590  0.4052  1.0000  -2.5216   0.0000   0.0000   0.0000   0.3609
   6.250   1.3625   0.02296   0.01416  -0.1570  0.3730  1.0000  -2.6706   0.0000   0.0000   0.0000   0.3574
   6.500   1.3806   0.02394   0.01499  -0.1548  0.3425  1.0000  -2.8422   0.0000   0.0000   0.0000   0.3540
   6.750   1.3971   0.02489   0.01582  -0.1525  0.3132  1.0000  -3.0119   0.0000   0.0000   0.0000   0.3506
   7.000   1.4130   0.02584   0.01683  -0.1500  0.2862  1.0000  -3.1815   0.0000   0.0000   0.0000   0.3473
   7.250   1.4278   0.02677   0.01771  -0.1475  0.2608  1.0000  -3.3506   0.0000   0.0000   0.0000   0.3441
   7.500   1.4423   0.02774   0.01863  -0.1450  0.2379  1.0000  -3.5210   0.0000   0.0000   0.0000   0.3409
   7.750   1.4576   0.02878   0.01968  -0.1426  0.2176  1.0000  -3.6935   0.0000   0.0000   0.0000   0.3379
   8.000   1.4731   0.02991   0.02083  -0.1403  0.1995  1.0000  -3.8668   0.0000   0.0000   0.0000   0.3349
   8.250   1.4889   0.03114   0.02208  -0.1381  0.1832  1.0000  -4.0393   0.0000   0.0000   0.0000   0.3321
   8.500   1.5033   0.03245   0.02348  -0.1356  0.1670  1.0000  -4.2026   0.0000   0.0000   0.0000   0.3292
   8.750   1.5131   0.03373   0.02479  -0.1325  0.1510  1.0000  -4.3508   0.0000   0.0000   0.0000   0.3262
   9.000   1.5215   0.03520   0.02637  -0.1293  0.1349  1.0000  -4.4825   0.0000   0.0000   0.0000   0.3231
   9.250   1.5292   0.03692   0.02811  -0.1260  0.1198  1.0000  -4.6018   0.0000   0.0000   0.0000   0.3202
   9.500   1.5342   0.03880   0.03004  -0.1225  0.1054  1.0000  -4.7021   0.0000   0.0000   0.0000   0.3172
   9.750   1.5409   0.04109   0.03253  -0.1192  0.0923  1.0000  -4.7799   0.0000   0.0000   0.0000   0.3144
  10.000   1.5496   0.04368   0.03523  -0.1164  0.0820  1.0000  -4.8487   0.0000   0.0000   0.0000   0.3117
  10.250   1.5626   0.04657   0.03818  -0.1142  0.0745  1.0000  -4.9259   0.0000   0.0000   0.0000   0.3093
  10.500   1.5743   0.04950   0.04137  -0.1119  0.0692  1.0000  -4.9923   0.0000   0.0000   0.0000   0.3069
  10.750   1.5869   0.05279   0.04479  -0.1101  0.0653  1.0000  -5.0871   0.0000   0.0000   0.0000   0.3048
  11.000   1.5853   0.05591   0.04836  -0.1066  0.0625  1.0000  -5.1409   0.0000   0.0000   0.0000   0.3023
  11.250   1.5844   0.05876   0.05146  -0.1036  0.0598  1.0000  -5.2255   0.0000   0.0000   0.0000   0.3001
  11.500   1.5912   0.06184   0.05455  -0.1018  0.0571  1.0000  -5.3642   0.0000   0.0000   0.0000   0.2982
  11.750   1.5827   0.06593   0.05901  -0.0988  0.0563  1.0000  -5.3800   0.0000   0.0000   0.0000   0.2963
  12.000   1.5678   0.07020   0.06370  -0.0958  0.0559  1.0000  -5.3634   0.0000   0.0000   0.0000   0.2946
  12.250   1.5501   0.07487   0.06876  -0.0936  0.0556  1.0000  -5.3324   0.0000   0.0000   0.0000   0.2934
  12.500   1.5302   0.07999   0.07424  -0.0921  0.0555  1.0000  -5.2880   0.0000   0.0000   0.0000   0.2929
  12.750   1.5085   0.08561   0.08018  -0.0917  0.0554  1.0000  -5.2301   0.0000   0.0000   0.0000   0.2930
  13.000   1.4854   0.09179   0.08665  -0.0925  0.0555  1.0000  -5.1583   0.0000   0.0000   0.0000   0.2941
  13.250   1.4613   0.09858   0.09371  -0.0945  0.0556  1.0000  -5.0722   0.0000   0.0000   0.0000   0.2960
  13.500   1.4369   0.10605   0.10141  -0.0978  0.0559  1.0000  -4.9708   0.0000   0.0000   0.0000   0.2990
  13.750   1.4124   0.11421   0.10978  -0.1023  0.0562  1.0000  -4.8530   0.0000   0.0000   0.0000   0.3030
  14.000   1.3888   0.12311   0.11885  -0.1080  0.0565  1.0000  -4.7182   0.0000   0.0000   0.0000   0.3080
  14.500   1.2749   0.16785   0.16383  -0.1420  0.0663  1.0000  -3.4375   0.0000   0.0000   0.0000   0.3421
  14.750   1.2689   0.17671   0.17260  -0.1471  0.0665  1.0000  -3.2951   0.0000   0.0000   0.0000   0.3466
  16.500   0.9819   0.23158   0.22801  -0.1566  0.1173  1.0000  -1.4674   0.0000   0.0000   0.0000   0.3906
  17.000   0.9833   0.23875   0.23524  -0.1597  0.1084  1.0000  -1.4483   0.0000   0.0000   0.0000   0.3927
  17.500   0.9786   0.24719   0.24370  -0.1643  0.1047  1.0000  -1.3610   0.0000   0.0000   0.0000   0.3974
  18.000   0.9863   0.25506   0.25163  -0.1664  0.0987  1.0000  -1.3707   0.0000   0.0000   0.0000   0.3974
  18.500   0.9902   0.26399   0.26059  -0.1694  0.0960  1.0000  -1.3411   0.0000   0.0000   0.0000   0.3989
  19.000   0.9911   0.27190   0.26855  -0.1731  0.0902  1.0000  -1.3206   0.0000   0.0000   0.0000   0.4016
  19.500   1.0116   0.28275   0.27953  -0.1729  0.0867  1.0000  -1.5024   0.0000   0.0000   0.0000   0.3968
  20.000   0.9994   0.28924   0.28604  -0.1792  0.0830  1.0000  -1.3699   0.0000   0.0000   0.0000   0.4044


