xflr5 v6.61

 Calculated polar for: BLD_75

 1 1 Reynolds number fixed          Mach number fixed         

 xtrf =   1.000 (top)        1.000 (bottom)
 Mach =   0.200     Re =     0.125 e 6     Ncrit =   7.000

  alpha     CL        CD       CDp       Cm    Top Xtr Bot Xtr   Cpmin    Chinge    XCp    
 ------- -------- --------- --------- -------- ------- ------- -------- --------- ---------
 -16.000  -0.5149   0.19682   0.19163  -0.0011  1.0000  0.0233  -1.5331   0.0000   0.0000   0.0000   0.2392
 -15.500  -0.4983   0.19049   0.18529  -0.0038  1.0000  0.0244  -1.4802   0.0000   0.0000   0.0000   0.2341
 -15.000  -0.4823   0.18431   0.17912  -0.0066  1.0000  0.0256  -1.4516   0.0000   0.0000   0.0000   0.2281
 -14.500  -0.4668   0.17826   0.17309  -0.0097  1.0000  0.0271  -1.4443   0.0000   0.0000   0.0000   0.2214
 -14.000  -0.4547   0.17376   0.16863  -0.0138  1.0000  0.0282  -1.5060   0.0000   0.0000   0.0000   0.2120
 -13.500  -0.4485   0.17047   0.16539  -0.0181  1.0000  0.0285  -1.5887   0.0000   0.0000   0.0000   0.2023
 -13.000  -0.4282   0.16000   0.15495  -0.0186  1.0000  0.0292  -1.4875   0.0000   0.0000   0.0000   0.1993
 -12.500  -0.4121   0.15281   0.14778  -0.0194  1.0000  0.0307  -1.4133   0.0000   0.0000   0.0000   0.1957
 -12.000  -0.3990   0.14670   0.14170  -0.0212  1.0000  0.0333  -1.4016   0.0000   0.0000   0.0000   0.1900
 -11.500  -0.3883   0.14090   0.13590  -0.0236  1.0000  0.0363  -1.4562   0.0000   0.0000   0.0000   0.1825
 -11.000  -0.3850   0.13675   0.13183  -0.0275  1.0000  0.0373  -1.6054   0.0000   0.0000   0.0000   0.1722
 -10.500  -0.3853   0.13261   0.12778  -0.0312  1.0000  0.0376  -1.7517   0.0000   0.0000   0.0000   0.1632
 -10.000  -0.3606   0.12230   0.11749  -0.0285  1.0000  0.0393  -1.5684   0.0000   0.0000   0.0000   0.1649
  -9.500  -0.3509   0.11652   0.11177  -0.0290  1.0000  0.0414  -1.5439   0.0000   0.0000   0.0000   0.1615
  -9.000  -0.3454   0.11115   0.10648  -0.0300  1.0000  0.0440  -1.5723   0.0000   0.0000   0.0000   0.1576
  -8.500  -0.3520   0.10754   0.10302  -0.0324  1.0000  0.0458  -1.7186   0.0000   0.0000   0.0000   0.1530
  -4.000  -0.1451   0.04183   0.03699  -0.0796  0.9805  0.0440  -2.1928   0.0000   0.0000   0.0000  -0.3047
  -3.500  -0.0419   0.02956   0.02342  -0.0952  0.9747  0.0436  -2.3776   0.0000   0.0000   0.0000  -2.0406
  -3.000   0.0534   0.02242   0.01473  -0.1039  0.9696  0.0442  -2.3071   0.0000   0.0000   0.0000   2.2129
  -2.500   0.1368   0.01914   0.01074  -0.1090  0.9611  0.0542  -2.0241   0.0000   0.0000   0.0000   1.0525
  -2.000   0.2166   0.01762   0.00918  -0.1138  0.9505  0.0906  -1.6309   0.0000   0.0000   0.0000   0.7781
  -1.500   0.2962   0.01630   0.00797  -0.1184  0.9394  0.1477  -1.2395   0.0000   0.0000   0.0000   0.6511
  -1.000   0.3692   0.01520   0.00739  -0.1218  0.9247  0.2878  -0.8943   0.0000   0.0000   0.0000   0.5805
  -0.500   0.4327   0.01302   0.00688  -0.1219  0.9109  1.0000  -0.5784   0.0000   0.0000   0.0000   0.5317
   0.000   0.5035   0.01281   0.00628  -0.1240  0.8931  1.0000  -0.6113   0.0000   0.0000   0.0000   0.4956
   0.500   0.5723   0.01256   0.00580  -0.1255  0.8732  1.0000  -0.6614   0.0000   0.0000   0.0000   0.4683
   1.000   0.6376   0.01236   0.00545  -0.1263  0.8492  1.0000  -0.7138   0.0000   0.0000   0.0000   0.4466
   1.500   0.7023   0.01220   0.00516  -0.1268  0.8228  1.0000  -0.7711   0.0000   0.0000   0.0000   0.4287
   2.000   0.7627   0.01222   0.00508  -0.1266  0.7910  1.0000  -0.8317   0.0000   0.0000   0.0000   0.4137
   2.500   0.8202   0.01240   0.00517  -0.1259  0.7555  1.0000  -0.9017   0.0000   0.0000   0.0000   0.4007
   3.000   0.8764   0.01269   0.00541  -0.1250  0.7188  1.0000  -1.0175   0.0000   0.0000   0.0000   0.3894
   3.500   0.9313   0.01311   0.00575  -0.1238  0.6822  1.0000  -1.2324   0.0000   0.0000   0.0000   0.3793
   4.000   0.9842   0.01363   0.00629  -0.1224  0.6442  1.0000  -1.5152   0.0000   0.0000   0.0000   0.3702
   4.500   1.0358   0.01422   0.00687  -0.1207  0.6042  1.0000  -1.8629   0.0000   0.0000   0.0000   0.3618
   5.000   1.0846   0.01485   0.00755  -0.1184  0.5565  1.0000  -2.2297   0.0000   0.0000   0.0000   0.3539
   5.500   1.1294   0.01558   0.00821  -0.1153  0.4946  1.0000  -2.6368   0.0000   0.0000   0.0000   0.3463
   6.000   1.1686   0.01655   0.00902  -0.1114  0.4056  1.0000  -3.0701   0.0000   0.0000   0.0000   0.3389
   6.500   1.1945   0.01877   0.01038  -0.1060  0.2315  1.0000  -3.4470   0.0000   0.0000   0.0000   0.3317
   7.000   1.2095   0.02287   0.01352  -0.0998  0.0786  1.0000  -3.7149   0.0000   0.0000   0.0000   0.3249
   7.500   1.2292   0.02626   0.01682  -0.0939  0.0510  1.0000  -3.9674   0.0000   0.0000   0.0000   0.3182
   8.000   1.2485   0.02953   0.02022  -0.0881  0.0415  1.0000  -4.3114   0.0000   0.0000   0.0000   0.3117
   8.500   1.2746   0.03297   0.02394  -0.0830  0.0366  1.0000  -4.6596   0.0000   0.0000   0.0000   0.3056
   9.000   1.3090   0.03764   0.02875  -0.0798  0.0317  1.0000  -5.0594   0.0000   0.0000   0.0000   0.3008
   9.500   1.3417   0.04214   0.03386  -0.0761  0.0282  1.0000  -5.3950   0.0000   0.0000   0.0000   0.2959
  10.000   1.3623   0.04787   0.04020  -0.0715  0.0266  1.0000  -5.6284   0.0000   0.0000   0.0000   0.2910
  10.500   1.3625   0.05406   0.04711  -0.0653  0.0258  1.0000  -5.7464   0.0000   0.0000   0.0000   0.2858
  11.000   1.3460   0.06093   0.05460  -0.0592  0.0255  1.0000  -5.7649   0.0000   0.0000   0.0000   0.2812
  11.500   1.3173   0.06893   0.06319  -0.0549  0.0255  1.0000  -5.6996   0.0000   0.0000   0.0000   0.2782
  12.000   1.2775   0.07891   0.07377  -0.0542  0.0258  1.0000  -5.5382   0.0000   0.0000   0.0000   0.2782
  12.500   1.2305   0.09183   0.08722  -0.0584  0.0263  1.0000  -5.2856   0.0000   0.0000   0.0000   0.2825
  13.000   1.1798   0.10858   0.10440  -0.0683  0.0270  1.0000  -4.9325   0.0000   0.0000   0.0000   0.2923
  13.500   1.1278   0.13103   0.12707  -0.0840  0.0282  1.0000  -4.3845   0.0000   0.0000   0.0000   0.3087
  14.000   1.0955   0.15451   0.15055  -0.0985  0.0299  1.0000  -3.7402   0.0000   0.0000   0.0000   0.3241
  14.500   1.0886   0.16938   0.16537  -0.1064  0.0311  1.0000  -3.4414   0.0000   0.0000   0.0000   0.3315


