xflr5 v6.61

 Calculated polar for: BLD_0

 1 1 Reynolds number fixed          Mach number fixed         

 xtrf =   1.000 (top)        1.000 (bottom)
 Mach =   0.200     Re =     0.100 e 6     Ncrit =   7.000

  alpha     CL        CD       CDp       Cm    Top Xtr Bot Xtr   Cpmin    Chinge    XCp    
 ------- -------- --------- --------- -------- ------- ------- -------- --------- ---------
 -22.000  -0.4353   0.23367   0.22849  -0.0044  1.0000  0.0226  -0.9578   0.0000   0.0000   0.0000   0.2328
 -21.500  -0.4270   0.22886   0.22364  -0.0058  1.0000  0.0232  -0.9349   0.0000   0.0000   0.0000   0.2295
 -21.000  -0.4192   0.22462   0.21939  -0.0074  1.0000  0.0240  -0.9282   0.0000   0.0000   0.0000   0.2257
 -20.500  -0.4115   0.22053   0.21529  -0.0090  1.0000  0.0248  -0.9262   0.0000   0.0000   0.0000   0.2217
 -20.000  -0.4038   0.21652   0.21127  -0.0106  1.0000  0.0257  -0.9262   0.0000   0.0000   0.0000   0.2176
 -19.500  -0.3963   0.21264   0.20738  -0.0121  1.0000  0.0266  -0.9295   0.0000   0.0000   0.0000   0.2132
 -19.000  -0.3892   0.20920   0.20394  -0.0138  1.0000  0.0275  -0.9439   0.0000   0.0000   0.0000   0.2085
 -18.500  -0.3842   0.20704   0.20174  -0.0157  1.0000  0.0280  -0.9791   0.0000   0.0000   0.0000   0.2030
 -18.000  -0.3825   0.20645   0.20116  -0.0178  1.0000  0.0282  -1.0370   0.0000   0.0000   0.0000   0.1976
 -17.500  -0.3724   0.19966   0.19439  -0.0185  1.0000  0.0287  -1.0340   0.0000   0.0000   0.0000   0.1944
 -17.000  -0.3615   0.19357   0.18830  -0.0187  1.0000  0.0299  -0.9746   0.0000   0.0000   0.0000   0.1926
 -16.500  -0.3543   0.18981   0.18455  -0.0194  1.0000  0.0312  -0.9723   0.0000   0.0000   0.0000   0.1894
 -16.000  -0.3480   0.18638   0.18112  -0.0203  1.0000  0.0325  -0.9867   0.0000   0.0000   0.0000   0.1859
 -15.500  -0.3425   0.18312   0.17786  -0.0211  1.0000  0.0338  -1.0084   0.0000   0.0000   0.0000   0.1826
 -15.000  -0.3368   0.17961   0.17436  -0.0220  1.0000  0.0352  -1.0358   0.0000   0.0000   0.0000   0.1790
 -14.500  -0.3325   0.17614   0.17087  -0.0230  1.0000  0.0364  -1.0805   0.0000   0.0000   0.0000   0.1751
 -14.000  -0.3313   0.17325   0.16800  -0.0243  1.0000  0.0370  -1.1490   0.0000   0.0000   0.0000   0.1709
 -13.500  -0.3326   0.17065   0.16542  -0.0257  1.0000  0.0373  -1.2251   0.0000   0.0000   0.0000   0.1672
 -13.000  -0.3355   0.16794   0.16274  -0.0270  1.0000  0.0374  -1.3015   0.0000   0.0000   0.0000   0.1642
 -12.500  -0.3135   0.15763   0.15246  -0.0251  1.0000  0.0388  -1.1454   0.0000   0.0000   0.0000   0.1643
 -12.000  -0.3067   0.15246   0.14733  -0.0250  1.0000  0.0402  -1.1153   0.0000   0.0000   0.0000   0.1630
 -11.500  -0.3013   0.14743   0.14233  -0.0251  1.0000  0.0419  -1.1046   0.0000   0.0000   0.0000   0.1613
 -11.000  -0.2970   0.14244   0.13739  -0.0253  1.0000  0.0439  -1.1101   0.0000   0.0000   0.0000   0.1595
 -10.500  -0.2975   0.13832   0.13334  -0.0262  1.0000  0.0455  -1.1637   0.0000   0.0000   0.0000   0.1570
 -10.000  -0.3046   0.13524   0.13035  -0.0273  1.0000  0.0459  -1.2510   0.0000   0.0000   0.0000   0.1557
  -9.500  -0.2931   0.12742   0.12260  -0.0259  1.0000  0.0468  -1.2083   0.0000   0.0000   0.0000   0.1571
  -9.000  -0.2834   0.12123   0.11644  -0.0240  1.0000  0.0490  -1.1513   0.0000   0.0000   0.0000   0.1608
  -8.500  -0.2811   0.11623   0.11153  -0.0230  1.0000  0.0521  -1.1591   0.0000   0.0000   0.0000   0.1641
  -8.000  -0.2885   0.11244   0.10785  -0.0229  1.0000  0.0551  -1.2470   0.0000   0.0000   0.0000   0.1671
  -7.500  -0.3083   0.11010   0.10565  -0.0227  1.0000  0.0557  -1.3857   0.0000   0.0000   0.0000   0.1734
  -7.000  -0.2894   0.10183   0.09746  -0.0187  1.0000  0.0590  -1.2570   0.0000   0.0000   0.0000   0.1822
  -6.500  -0.2961   0.09762   0.09337  -0.0162  1.0000  0.0620  -1.2776   0.0000   0.0000   0.0000   0.1925
  -6.000  -0.3162   0.09464   0.09053  -0.0132  1.0000  0.0645  -1.3521   0.0000   0.0000   0.0000   0.2062
  -4.500  -0.2804   0.07643   0.07254  -0.0300  0.9894  0.0753  -1.5223   0.0000   0.0000   0.0000   0.1410
  -4.000  -0.2352   0.06727   0.06339  -0.0359  0.9793  0.0796  -1.4357   0.0000   0.0000   0.0000   0.0950
  -3.000  -0.0656   0.04642   0.04145  -0.0879  0.9839  0.0479  -2.0347   0.0000   0.0000   0.0000  -1.1024
  -2.500   0.0955   0.03136   0.02444  -0.1181  0.9863  0.0459  -2.2698   0.0000   0.0000   0.0000   1.4953
  -2.000   0.1983   0.02615   0.01810  -0.1285  0.9823  0.0482  -2.0862   0.0000   0.0000   0.0000   0.9019
  -1.500   0.2878   0.02380   0.01526  -0.1348  0.9753  0.0626  -1.8486   0.0000   0.0000   0.0000   0.7205
  -1.000   0.3735   0.02266   0.01413  -0.1407  0.9646  0.1207  -1.4774   0.0000   0.0000   0.0000   0.6276
  -0.500   0.4590   0.02209   0.01402  -0.1469  0.9521  0.2769  -1.0165   0.0000   0.0000   0.0000   0.5701
   0.000   0.5381   0.02124   0.01386  -0.1512  0.9367  0.5126  -0.6680   0.0000   0.0000   0.0000   0.5305
   0.500   0.6006   0.01987   0.01318  -0.1508  0.9180  1.0000  -0.6766   0.0000   0.0000   0.0000   0.4999
   1.000   0.6822   0.01948   0.01247  -0.1547  0.8999  1.0000  -0.7616   0.0000   0.0000   0.0000   0.4751
   1.500   0.7597   0.01885   0.01167  -0.1575  0.8790  1.0000  -0.8547   0.0000   0.0000   0.0000   0.4551
   2.000   0.8375   0.01790   0.01065  -0.1598  0.8567  1.0000  -0.9667   0.0000   0.0000   0.0000   0.4380
   2.500   0.9109   0.01706   0.00982  -0.1612  0.8275  1.0000  -1.0830   0.0000   0.0000   0.0000   0.4236
   3.000   0.9925   0.01617   0.00895  -0.1639  0.7895  1.0000  -1.2265   0.0000   0.0000   0.0000   0.4113
   3.500   1.0773   0.01565   0.00835  -0.1675  0.7322  1.0000  -1.3919   0.0000   0.0000   0.0000   0.4011
   4.000   1.1489   0.01586   0.00831  -0.1687  0.6534  1.0000  -1.5833   0.0000   0.0000   0.0000   0.3918
   4.500   1.2024   0.01674   0.00880  -0.1668  0.5675  1.0000  -1.7722   0.0000   0.0000   0.0000   0.3831
   5.000   1.2469   0.01797   0.00971  -0.1635  0.4878  1.0000  -1.9492   0.0000   0.0000   0.0000   0.3749
   5.500   1.2875   0.01939   0.01082  -0.1598  0.4169  1.0000  -2.2033   0.0000   0.0000   0.0000   0.3672
   6.000   1.3262   0.02096   0.01213  -0.1560  0.3555  1.0000  -2.4945   0.0000   0.0000   0.0000   0.3601
   6.500   1.3615   0.02261   0.01356  -0.1518  0.2954  1.0000  -2.8104   0.0000   0.0000   0.0000   0.3533
   7.000   1.3950   0.02434   0.01523  -0.1474  0.2428  1.0000  -3.1575   0.0000   0.0000   0.0000   0.3468
   7.500   1.4280   0.02615   0.01698  -0.1432  0.2005  1.0000  -3.5128   0.0000   0.0000   0.0000   0.3407
   8.000   1.4589   0.02804   0.01894  -0.1386  0.1664  1.0000  -3.8668   0.0000   0.0000   0.0000   0.3347
   8.500   1.4872   0.03021   0.02124  -0.1338  0.1401  1.0000  -4.2104   0.0000   0.0000   0.0000   0.3289
   9.000   1.5110   0.03265   0.02385  -0.1285  0.1112  1.0000  -4.5335   0.0000   0.0000   0.0000   0.3232
   9.500   1.5267   0.03581   0.02713  -0.1225  0.0857  1.0000  -4.8046   0.0000   0.0000   0.0000   0.3176
  10.000   1.5341   0.03988   0.03142  -0.1160  0.0664  1.0000  -5.0060   0.0000   0.0000   0.0000   0.3122
  10.500   1.5384   0.04475   0.03660  -0.1097  0.0548  1.0000  -5.1535   0.0000   0.0000   0.0000   0.3071
  11.000   1.5418   0.05000   0.04210  -0.1044  0.0481  1.0000  -5.3101   0.0000   0.0000   0.0000   0.3026
  11.500   1.5453   0.05584   0.04845  -0.0999  0.0429  1.0000  -5.4807   0.0000   0.0000   0.0000   0.2987
  12.000   1.5428   0.06217   0.05510  -0.0965  0.0395  1.0000  -5.6795   0.0000   0.0000   0.0000   0.2957
  12.500   1.5375   0.07008   0.06342  -0.0939  0.0377  1.0000  -5.8152   0.0000   0.0000   0.0000   0.2933
  13.000   1.5192   0.07961   0.07364  -0.0930  0.0369  1.0000  -5.8408   0.0000   0.0000   0.0000   0.2926
  13.500   1.4901   0.09122   0.08588  -0.0951  0.0365  1.0000  -5.7830   0.0000   0.0000   0.0000   0.2943
  14.000   1.4538   0.10528   0.10051  -0.1010  0.0363  1.0000  -5.6432   0.0000   0.0000   0.0000   0.2991
  14.500   1.4124   0.12240   0.11810  -0.1116  0.0365  1.0000  -5.4042   0.0000   0.0000   0.0000   0.3077
  15.000   1.3663   0.14352   0.13956  -0.1269  0.0371  1.0000  -5.0132   0.0000   0.0000   0.0000   0.3210
  15.500   1.3180   0.16917   0.16537  -0.1459  0.0378  1.0000  -4.3890   0.0000   0.0000   0.0000   0.3387
  16.500   1.2671   0.21984   0.21585  -0.1793  0.0415  1.0000  -2.8581   0.0000   0.0000   0.0000   0.3699
  17.000   1.2735   0.23209   0.22808  -0.1871  0.0434  1.0000  -2.6614   0.0000   0.0000   0.0000   0.3747
  17.500   1.2864   0.24170   0.23771  -0.1925  0.0459  1.0000  -2.5958   0.0000   0.0000   0.0000   0.3765
  18.000   0.9971   0.25313   0.24987  -0.1651  0.0761  1.0000  -1.5130   0.0000   0.0000   0.0000   0.3938
  18.500   0.9912   0.26207   0.25884  -0.1704  0.0735  1.0000  -1.3885   0.0000   0.0000   0.0000   0.3995
  19.000   0.9953   0.27056   0.26738  -0.1735  0.0702  1.0000  -1.3950   0.0000   0.0000   0.0000   0.4010
  19.500   1.0056   0.27876   0.27571  -0.1749  0.0674  1.0000  -1.5083   0.0000   0.0000   0.0000   0.3996
  20.000   1.0102   0.28844   0.28542  -0.1778  0.0660  1.0000  -1.5364   0.0000   0.0000   0.0000   0.4008


