xflr5 v6.61

 Calculated polar for: BLD_0

 1 1 Reynolds number fixed          Mach number fixed         

 xtrf =   1.000 (top)        1.000 (bottom)
 Mach =   0.200     Re =     0.070 e 6     Ncrit =   9.000

  alpha     CL        CD       CDp       Cm    Top Xtr Bot Xtr   Cpmin    Chinge    XCp    
 ------- -------- --------- --------- -------- ------- ------- -------- --------- ---------
 -11.500  -0.3006   0.14966   0.14361  -0.0260  1.0000  0.0698  -1.0446   0.0000   0.0000   0.0000   0.1581
 -11.000  -0.2975   0.14518   0.13920  -0.0263  1.0000  0.0741  -1.0512   0.0000   0.0000   0.0000   0.1563
 -10.500  -0.3087   0.14380   0.13792  -0.0280  1.0000  0.0757  -1.1445   0.0000   0.0000   0.0000   0.1549
 -10.000  -0.2872   0.13427   0.12844  -0.0257  1.0000  0.0801  -1.0403   0.0000   0.0000   0.0000   0.1557
  -9.750  -0.3492   0.13543   0.12922  -0.0255  1.0000  0.0770  -1.2592   0.0000   0.0000   0.0000   0.1707
  -9.500  -0.2860   0.12974   0.12395  -0.0256  1.0000  0.0847  -1.0736   0.0000   0.0000   0.0000   0.1561
  -9.250  -0.3376   0.12927   0.12313  -0.0245  1.0000  0.0820  -1.2278   0.0000   0.0000   0.0000   0.1716
  -9.000  -0.3011   0.12812   0.12247  -0.0266  1.0000  0.0864  -1.1867   0.0000   0.0000   0.0000   0.1579
  -8.750  -0.3421   0.12650   0.12045  -0.0253  1.0000  0.0859  -1.3037   0.0000   0.0000   0.0000   0.1708
  -8.500  -0.2796   0.11891   0.11332  -0.0238  1.0000  0.0910  -1.1053   0.0000   0.0000   0.0000   0.1610
  -8.250  -0.3341   0.12005   0.11412  -0.0240  1.0000  0.0883  -1.3011   0.0000   0.0000   0.0000   0.1730
  -8.000  -0.2849   0.11504   0.10959  -0.0231  1.0000  0.0959  -1.1549   0.0000   0.0000   0.0000   0.1654
  -7.750  -0.3289   0.11501   0.10918  -0.0224  1.0000  0.0936  -1.2955   0.0000   0.0000   0.0000   0.1769
  -7.500  -0.2890   0.11014   0.10483  -0.0217  1.0000  0.0984  -1.1933   0.0000   0.0000   0.0000   0.1716
  -7.250  -0.3484   0.11382   0.10820  -0.0217  1.0000  0.0968  -1.3980   0.0000   0.0000   0.0000   0.1838
  -7.000  -0.2856   0.10475   0.09955  -0.0192  1.0000  0.1043  -1.1788   0.0000   0.0000   0.0000   0.1799
  -6.750  -0.3357   0.10659   0.10106  -0.0187  1.0000  0.1010  -1.3516   0.0000   0.0000   0.0000   0.1905
  -6.500  -0.3126   0.10331   0.09831  -0.0170  1.0000  0.1074  -1.2756   0.0000   0.0000   0.0000   0.1932
  -6.250  -0.3504   0.10387   0.09853  -0.0155  1.0000  0.1060  -1.3959   0.0000   0.0000   0.0000   0.2024
  -6.000  -0.3044   0.09644   0.09155  -0.0135  1.0000  0.1121  -1.2359   0.0000   0.0000   0.0000   0.2034
  -5.750  -0.3579   0.09976   0.09460  -0.0152  1.0000  0.1091  -1.4494   0.0000   0.0000   0.0000   0.2046
  -5.500  -0.3230   0.09359   0.08887  -0.0114  1.0000  0.1174  -1.2919   0.0000   0.0000   0.0000   0.2130
  -5.250  -0.3532   0.09472   0.08968  -0.0137  1.0000  0.1162  -1.4366   0.0000   0.0000   0.0000   0.2084
  -5.000  -0.3510   0.09283   0.08788  -0.0205  1.0000  0.1190  -1.5187   0.0000   0.0000   0.0000   0.1889
  -4.750  -0.3473   0.08936   0.08445  -0.0151  1.0000  0.1217  -1.4570   0.0000   0.0000   0.0000   0.2039
  -4.500  -0.3410   0.08681   0.08194  -0.0164  1.0000  0.1269  -1.4580   0.0000   0.0000   0.0000   0.1994
  -4.250  -0.3302   0.08367   0.07884  -0.0214  1.0000  0.1308  -1.4904   0.0000   0.0000   0.0000   0.1828
  -4.000  -0.3236   0.08092   0.07613  -0.0197  1.0000  0.1354  -1.4560   0.0000   0.0000   0.0000   0.1869
  -3.750  -0.3053   0.07746   0.07269  -0.0260  1.0000  0.1420  -1.4772   0.0000   0.0000   0.0000   0.1623
  -3.500  -0.2838   0.07102   0.06665  -0.0252  1.0000  0.1516  -1.3722   0.0000   0.0000   0.0000   0.1596
  -3.250  -0.2757   0.07144   0.06665  -0.0294  1.0000  0.1571  -1.4299   0.0000   0.0000   0.0000   0.1407
  -3.000  -0.2501   0.06451   0.06010  -0.0315  1.0000  0.1735  -1.3336   0.0000   0.0000   0.0000   0.1225
  -2.500  -0.2198   0.05818   0.05381  -0.0335  1.0000  0.1968  -1.2619   0.0000   0.0000   0.0000   0.0956
  -2.000   0.0319   0.04047   0.03387  -0.0975  1.0000  0.1076  -1.6512   0.0000   0.0000   0.0000   3.3207
  -1.750   0.0985   0.03505   0.02776  -0.1071  1.0000  0.0942  -1.6856   0.0000   0.0000   0.0000   1.3418
  -1.500   0.1589   0.03143   0.02329  -0.1142  1.0000  0.0928  -1.7115   0.0000   0.0000   0.0000   0.9717
  -1.250   0.2069   0.02922   0.02038  -0.1182  1.0000  0.0994  -1.7008   0.0000   0.0000   0.0000   0.8232
  -1.000   0.2429   0.02819   0.01908  -0.1199  1.0000  0.1201  -1.6437   0.0000   0.0000   0.0000   0.7452
  -0.750   0.2716   0.02800   0.01894  -0.1209  1.0000  0.1552  -1.5210   0.0000   0.0000   0.0000   0.6958
  -0.500   0.3013   0.02780   0.01871  -0.1218  1.0000  0.1943  -1.3910   0.0000   0.0000   0.0000   0.6545
  -0.250   0.3329   0.02749   0.01852  -0.1229  1.0000  0.2419  -1.2486   0.0000   0.0000   0.0000   0.6192
   0.000   0.3621   0.02745   0.01869  -0.1237  1.0000  0.3172  -1.0928   0.0000   0.0000   0.0000   0.5913
   0.250   0.3913   0.02743   0.01900  -0.1245  1.0000  0.4216  -0.9637   0.0000   0.0000   0.0000   0.5675
   0.500   0.4217   0.02686   0.01946  -0.1247  1.0000  0.6664  -0.8278   0.0000   0.0000   0.0000   0.5447
   0.750   0.4378   0.02705   0.01978  -0.1234  0.9940  1.0000  -0.7314   0.0000   0.0000   0.0000   0.5306
   1.000   0.4926   0.02809   0.02039  -0.1292  0.9797  1.0000  -0.6114   0.0000   0.0000   0.0000   0.5107
   1.250   0.5408   0.02875   0.02078  -0.1336  0.9636  1.0000  -0.6550   0.0000   0.0000   0.0000   0.4952
   1.500   0.5886   0.02922   0.02107  -0.1377  0.9481  1.0000  -0.7008   0.0000   0.0000   0.0000   0.4818
   1.750   0.6370   0.02952   0.02124  -0.1416  0.9328  1.0000  -0.7498   0.0000   0.0000   0.0000   0.4699
   2.000   0.6825   0.02966   0.02129  -0.1448  0.9163  1.0000  -0.8018   0.0000   0.0000   0.0000   0.4595
   2.250   0.7325   0.02954   0.02111  -0.1484  0.9009  1.0000  -0.8629   0.0000   0.0000   0.0000   0.4496
   2.500   0.7762   0.02933   0.02089  -0.1507  0.8830  1.0000  -0.9237   0.0000   0.0000   0.0000   0.4409
   2.750   0.8285   0.02872   0.02032  -0.1539  0.8683  1.0000  -0.9952   0.0000   0.0000   0.0000   0.4323
   3.000   0.8709   0.02819   0.01983  -0.1554  0.8496  1.0000  -1.0603   0.0000   0.0000   0.0000   0.4247
   3.250   0.9257   0.02699   0.01871  -0.1583  0.8356  1.0000  -1.1475   0.0000   0.0000   0.0000   0.4170
   3.500   0.9700   0.02595   0.01778  -0.1593  0.8165  1.0000  -1.2261   0.0000   0.0000   0.0000   0.4100
   3.750   1.0206   0.02457   0.01651  -0.1610  0.7974  1.0000  -1.3205   0.0000   0.0000   0.0000   0.4032
   4.000   1.0763   0.02308   0.01513  -0.1634  0.7751  1.0000  -1.4236   0.0000   0.0000   0.0000   0.3970
   4.250   1.1301   0.02182   0.01398  -0.1656  0.7460  1.0000  -1.5621   0.0000   0.0000   0.0000   0.3914
   4.500   1.1773   0.02106   0.01320  -0.1668  0.7076  1.0000  -1.6927   0.0000   0.0000   0.0000   0.3863
   4.750   1.2168   0.02086   0.01288  -0.1670  0.6626  1.0000  -1.8111   0.0000   0.0000   0.0000   0.3815
   5.000   1.2472   0.02115   0.01307  -0.1660  0.6152  1.0000  -1.9140   0.0000   0.0000   0.0000   0.3770
   5.250   1.2736   0.02173   0.01343  -0.1644  0.5686  1.0000  -2.0283   0.0000   0.0000   0.0000   0.3727
   5.500   1.2974   0.02250   0.01397  -0.1627  0.5245  1.0000  -2.1815   0.0000   0.0000   0.0000   0.3686
   5.750   1.3198   0.02341   0.01465  -0.1608  0.4834  1.0000  -2.3325   0.0000   0.0000   0.0000   0.3648
   6.000   1.3411   0.02440   0.01545  -0.1589  0.4453  1.0000  -2.4820   0.0000   0.0000   0.0000   0.3610
   6.250   1.3624   0.02548   0.01633  -0.1570  0.4105  1.0000  -2.6339   0.0000   0.0000   0.0000   0.3575
   6.500   1.3829   0.02663   0.01735  -0.1552  0.3783  1.0000  -2.7949   0.0000   0.0000   0.0000   0.3541
   6.750   1.4029   0.02784   0.01848  -0.1533  0.3487  1.0000  -2.9691   0.0000   0.0000   0.0000   0.3508
   7.000   1.4249   0.02914   0.01975  -0.1517  0.3223  1.0000  -3.1539   0.0000   0.0000   0.0000   0.3477
   7.250   1.4427   0.03039   0.02104  -0.1496  0.2965  1.0000  -3.3239   0.0000   0.0000   0.0000   0.3445
   7.500   1.4580   0.03149   0.02209  -0.1470  0.2714  1.0000  -3.4924   0.0000   0.0000   0.0000   0.3413
   7.750   1.4709   0.03251   0.02304  -0.1442  0.2477  1.0000  -3.6581   0.0000   0.0000   0.0000   0.3382
   8.000   1.4825   0.03357   0.02408  -0.1413  0.2255  1.0000  -3.8187   0.0000   0.0000   0.0000   0.3350
   8.250   1.4942   0.03478   0.02537  -0.1384  0.2054  1.0000  -3.9743   0.0000   0.0000   0.0000   0.3320
   8.500   1.5094   0.03632   0.02700  -0.1360  0.1875  1.0000  -4.1334   0.0000   0.0000   0.0000   0.3291
   8.750   1.5251   0.03796   0.02858  -0.1339  0.1705  1.0000  -4.2949   0.0000   0.0000   0.0000   0.3264
   9.000   1.5329   0.03958   0.03041  -0.1305  0.1530  1.0000  -4.4159   0.0000   0.0000   0.0000   0.3234
   9.250   1.5438   0.04157   0.03244  -0.1277  0.1368  1.0000  -4.5381   0.0000   0.0000   0.0000   0.3206
   9.500   1.5518   0.04378   0.03482  -0.1245  0.1217  1.0000  -4.6292   0.0000   0.0000   0.0000   0.3177
   9.750   1.5596   0.04600   0.03712  -0.1215  0.1086  1.0000  -4.7220   0.0000   0.0000   0.0000   0.3150
  10.000   1.5736   0.04905   0.04018  -0.1194  0.0971  1.0000  -4.8024   0.0000   0.0000   0.0000   0.3126
  10.250   1.5765   0.05233   0.04397  -0.1157  0.0900  1.0000  -4.8130   0.0000   0.0000   0.0000   0.3097
  10.500   1.5849   0.05605   0.04794  -0.1132  0.0848  1.0000  -4.8535   0.0000   0.0000   0.0000   0.3074
  10.750   1.5806   0.05981   0.05218  -0.1092  0.0819  1.0000  -4.8441   0.0000   0.0000   0.0000   0.3047
  11.000   1.5795   0.06346   0.05612  -0.1060  0.0794  1.0000  -4.8891   0.0000   0.0000   0.0000   0.3024
  11.250   1.5848   0.06734   0.06014  -0.1039  0.0771  1.0000  -4.9766   0.0000   0.0000   0.0000   0.3004
  11.500   1.5709   0.07158   0.06471  -0.1002  0.0762  1.0000  -4.9675   0.0000   0.0000   0.0000   0.2983
  11.750   1.5486   0.07594   0.06947  -0.0966  0.0759  1.0000  -4.9201   0.0000   0.0000   0.0000   0.2965
  12.000   1.5249   0.08076   0.07465  -0.0939  0.0758  1.0000  -4.8639   0.0000   0.0000   0.0000   0.2954
  12.250   1.5000   0.08609   0.08030  -0.0925  0.0758  1.0000  -4.7986   0.0000   0.0000   0.0000   0.2951
  12.500   1.4746   0.09197   0.08647  -0.0923  0.0759  1.0000  -4.7239   0.0000   0.0000   0.0000   0.2956
  12.750   1.4492   0.09845   0.09320  -0.0933  0.0761  1.0000  -4.6400   0.0000   0.0000   0.0000   0.2971
  13.000   1.4245   0.10553   0.10048  -0.0957  0.0764  1.0000  -4.5474   0.0000   0.0000   0.0000   0.2994
  13.500   1.2665   0.14982   0.14516  -0.1303  0.0887  1.0000  -3.3643   0.0000   0.0000   0.0000   0.3355
  13.750   1.2736   0.15274   0.14808  -0.1304  0.0865  1.0000  -3.4151   0.0000   0.0000   0.0000   0.3344
  17.000   1.2603   0.24824   0.24337  -0.1924  0.1294  1.0000  -2.0375   0.0000   0.0000   0.0000   0.3815
  17.500   1.2668   0.25510   0.25020  -0.1996  0.1242  1.0000  -1.9714   0.0000   0.0000   0.0000   0.3856
  18.000   1.2950   0.26556   0.26083  -0.2002  0.1181  1.0000  -2.0865   0.0000   0.0000   0.0000   0.3816
  18.500   1.2960   0.26980   0.26501  -0.2094  0.1132  1.0000  -1.9941   0.0000   0.0000   0.0000   0.3877


