xflr5 v6.61

 Calculated polar for: BLD_75

 1 1 Reynolds number fixed          Mach number fixed         

 xtrf =   1.000 (top)        1.000 (bottom)
 Mach =   0.200     Re =     0.050 e 6     Ncrit =   9.000

  alpha     CL        CD       CDp       Cm    Top Xtr Bot Xtr   Cpmin    Chinge    XCp    
 ------- -------- --------- --------- -------- ------- ------- -------- --------- ---------
 -20.500  -0.6779   0.25565   0.24749   0.0317  1.0000  0.0481  -1.4324   0.0000   0.0000   0.0000   0.2852
 -20.000  -0.6597   0.24919   0.24102   0.0281  1.0000  0.0504  -1.4153   0.0000   0.0000   0.0000   0.2816
 -19.500  -0.6420   0.24350   0.23532   0.0242  1.0000  0.0530  -1.4202   0.0000   0.0000   0.0000   0.2771
 -19.000  -0.6255   0.23917   0.23098   0.0197  1.0000  0.0551  -1.4534   0.0000   0.0000   0.0000   0.2714
 -18.500  -0.6133   0.23829   0.23013   0.0145  1.0000  0.0559  -1.5263   0.0000   0.0000   0.0000   0.2640
 -18.000  -0.5903   0.22603   0.21788   0.0128  1.0000  0.0580  -1.4470   0.0000   0.0000   0.0000   0.2622
 -17.500  -0.5722   0.21954   0.21140   0.0097  1.0000  0.0611  -1.4211   0.0000   0.0000   0.0000   0.2578
 -17.000  -0.5563   0.21463   0.20651   0.0059  1.0000  0.0646  -1.4299   0.0000   0.0000   0.0000   0.2518
 -16.500  -0.5479   0.21425   0.20620   0.0008  1.0000  0.0659  -1.5032   0.0000   0.0000   0.0000   0.2432
 -16.000  -0.5224   0.20170   0.19364  -0.0001  1.0000  0.0700  -1.3856   0.0000   0.0000   0.0000   0.2417
 -15.500  -0.5072   0.19647   0.18840  -0.0033  1.0000  0.0741  -1.3760   0.0000   0.0000   0.0000   0.2355
 -15.000  -0.5012   0.19559   0.18759  -0.0080  1.0000  0.0758  -1.4372   0.0000   0.0000   0.0000   0.2267
 -14.500  -0.4758   0.18367   0.17569  -0.0086  1.0000  0.0797  -1.3215   0.0000   0.0000   0.0000   0.2244
 -14.000  -0.4618   0.17815   0.17020  -0.0113  1.0000  0.0844  -1.2991   0.0000   0.0000   0.0000   0.2182
 -13.500  -0.4593   0.17688   0.16903  -0.0156  1.0000  0.0865  -1.3797   0.0000   0.0000   0.0000   0.2094
 -13.000  -0.4334   0.16547   0.15763  -0.0157  1.0000  0.0917  -1.3092   0.0000   0.0000   0.0000   0.2068
 -12.500  -0.4261   0.16152   0.15375  -0.0188  1.0000  0.0965  -1.3607   0.0000   0.0000   0.0000   0.1994
 -12.000  -0.4093   0.15354   0.14583  -0.0199  1.0000  0.1010  -1.3427   0.0000   0.0000   0.0000   0.1951
 -11.500  -0.4049   0.14988   0.14220  -0.0226  1.0000  0.1073  -1.3931   0.0000   0.0000   0.0000   0.1881
 -11.000  -0.3870   0.14162   0.13399  -0.0230  1.0000  0.1140  -1.3570   0.0000   0.0000   0.0000   0.1845
 -10.500  -0.3923   0.13978   0.13230  -0.0264  1.0000  0.1187  -1.4448   0.0000   0.0000   0.0000   0.1773
 -10.000  -0.3699   0.13040   0.12296  -0.0258  1.0000  0.1271  -1.3779   0.0000   0.0000   0.0000   0.1748
  -9.750  -0.2987   0.12383   0.11691  -0.0295  1.0000  0.1374  -1.1925   0.0000   0.0000   0.0000   0.1470
  -9.500  -0.3618   0.12446   0.11713  -0.0266  1.0000  0.1329  -1.3816   0.0000   0.0000   0.0000   0.1711
  -9.250  -0.2955   0.11809   0.11129  -0.0295  1.0000  0.1437  -1.1993   0.0000   0.0000   0.0000   0.1463
  -9.000  -0.3670   0.12152   0.11437  -0.0283  1.0000  0.1401  -1.4349   0.0000   0.0000   0.0000   0.1681
  -8.750  -0.3058   0.11484   0.10820  -0.0300  1.0000  0.1511  -1.2519   0.0000   0.0000   0.0000   0.1485
  -8.500  -0.3532   0.11424   0.10719  -0.0274  1.0000  0.1495  -1.3904   0.0000   0.0000   0.0000   0.1679
  -8.250  -0.2973   0.10800   0.10148  -0.0286  1.0000  0.1611  -1.2175   0.0000   0.0000   0.0000   0.1506
  -8.000  -0.3472   0.10845   0.10154  -0.0265  1.0000  0.1579  -1.3730   0.0000   0.0000   0.0000   0.1692
  -7.750  -0.2950   0.10212   0.09575  -0.0269  1.0000  0.1710  -1.1998   0.0000   0.0000   0.0000   0.1557
  -7.500  -0.3489   0.10371   0.09699  -0.0253  1.0000  0.1664  -1.3750   0.0000   0.0000   0.0000   0.1735
  -7.250  -0.3009   0.09730   0.09113  -0.0247  1.0000  0.1823  -1.1991   0.0000   0.0000   0.0000   0.1655
  -6.750  -0.3617   0.09789   0.09151  -0.0221  1.0000  0.1824  -1.3879   0.0000   0.0000   0.0000   0.1858
  -6.500  -0.3597   0.09494   0.08864  -0.0208  1.0000  0.1889  -1.3682   0.0000   0.0000   0.0000   0.1891
  -6.250  -0.3704   0.09420   0.08803  -0.0228  1.0000  0.1950  -1.4143   0.0000   0.0000   0.0000   0.1859
  -6.000  -0.3659   0.09095   0.08480  -0.0207  1.0000  0.2050  -1.3870   0.0000   0.0000   0.0000   0.1908
  -5.750  -0.3629   0.08799   0.08191  -0.0191  1.0000  0.2143  -1.3790   0.0000   0.0000   0.0000   0.1948
  -5.500  -0.3613   0.08531   0.07931  -0.0183  1.0000  0.2232  -1.3800   0.0000   0.0000   0.0000   0.1969
  -5.250  -0.3598   0.08272   0.07680  -0.0181  1.0000  0.2328  -1.3845   0.0000   0.0000   0.0000   0.1975
  -5.000  -0.3571   0.08008   0.07422  -0.0180  1.0000  0.2433  -1.3875   0.0000   0.0000   0.0000   0.1974
  -4.750  -0.3529   0.07738   0.07158  -0.0179  1.0000  0.2551  -1.3862   0.0000   0.0000   0.0000   0.1972
  -4.250  -0.3407   0.07186   0.06615  -0.0189  1.0000  0.2850  -1.3811   0.0000   0.0000   0.0000   0.1925
  -4.000  -0.3318   0.06916   0.06349  -0.0200  1.0000  0.3055  -1.3734   0.0000   0.0000   0.0000   0.1879
  -3.750  -0.3230   0.06632   0.06068  -0.0194  1.0000  0.3274  -1.3549   0.0000   0.0000   0.0000   0.1880
  -2.750  -0.1055   0.04213   0.03451  -0.0713  1.0000  0.1518  -1.6430   0.0000   0.0000   0.0000  -0.4310
  -2.500  -0.0643   0.03849   0.03038  -0.0758  1.0000  0.1505  -1.6199   0.0000   0.0000   0.0000  -0.9364
  -2.250  -0.0250   0.03539   0.02680  -0.0793  1.0000  0.1537  -1.5735   0.0000   0.0000   0.0000  -2.9383
  -2.000   0.0210   0.03213   0.02273  -0.0834  1.0000  0.1524  -1.5981   0.0000   0.0000   0.0000   4.2446
  -1.750   0.0573   0.03011   0.02024  -0.0854  1.0000  0.1634  -1.5606   0.0000   0.0000   0.0000   1.7471
  -1.500   0.0882   0.02887   0.01877  -0.0864  1.0000  0.1858  -1.4801   0.0000   0.0000   0.0000   1.2339
  -1.250   0.1193   0.02777   0.01748  -0.0874  1.0000  0.2095  -1.3866   0.0000   0.0000   0.0000   0.9851
  -1.000   0.1498   0.02689   0.01642  -0.0881  1.0000  0.2401  -1.2807   0.0000   0.0000   0.0000   0.8400
  -0.750   0.1794   0.02621   0.01566  -0.0886  1.0000  0.2865  -1.1835   0.0000   0.0000   0.0000   0.7450
  -0.500   0.2121   0.02533   0.01503  -0.0897  1.0000  0.3748  -1.0748   0.0000   0.0000   0.0000   0.6737
   0.000   0.2520   0.02337   0.01437  -0.0869  1.0000  1.0000  -0.9043   0.0000   0.0000   0.0000   0.5947
   0.250   0.2740   0.02419   0.01480  -0.0871  1.0000  1.0000  -0.7848   0.0000   0.0000   0.0000   0.5675
   0.500   0.2950   0.02509   0.01543  -0.0874  1.0000  1.0000  -0.6677   0.0000   0.0000   0.0000   0.5454
   0.750   0.3150   0.02607   0.01620  -0.0876  1.0000  1.0000  -0.5553   0.0000   0.0000   0.0000   0.5271
   1.000   0.3344   0.02713   0.01706  -0.0879  1.0000  1.0000  -0.5044   0.0000   0.0000   0.0000   0.5116
   1.250   0.3875   0.02844   0.01813  -0.0943  0.9841  1.0000  -0.5363   0.0000   0.0000   0.0000   0.4918
   1.500   0.4395   0.02962   0.01914  -0.1002  0.9687  1.0000  -0.5698   0.0000   0.0000   0.0000   0.4761
   1.750   0.4826   0.03061   0.02004  -0.1043  0.9516  1.0000  -0.5991   0.0000   0.0000   0.0000   0.4640
   2.000   0.5247   0.03155   0.02091  -0.1080  0.9351  1.0000  -0.6296   0.0000   0.0000   0.0000   0.4535
   2.250   0.5695   0.03241   0.02173  -0.1119  0.9195  1.0000  -0.6639   0.0000   0.0000   0.0000   0.4441
   2.500   0.6046   0.03325   0.02257  -0.1141  0.9025  1.0000  -0.6933   0.0000   0.0000   0.0000   0.4360
   2.750   0.6478   0.03396   0.02330  -0.1173  0.8875  1.0000  -0.7319   0.0000   0.0000   0.0000   0.4282
   3.000   0.6782   0.03478   0.02419  -0.1184  0.8704  1.0000  -0.7634   0.0000   0.0000   0.0000   0.4215
   3.250   0.7199   0.03536   0.02484  -0.1210  0.8557  1.0000  -0.8094   0.0000   0.0000   0.0000   0.4148
   3.500   0.7476   0.03618   0.02575  -0.1214  0.8386  1.0000  -0.8491   0.0000   0.0000   0.0000   0.4089
   3.750   0.7881   0.03662   0.02635  -0.1234  0.8239  1.0000  -0.9125   0.0000   0.0000   0.0000   0.4028
   4.000   0.8148   0.03742   0.02727  -0.1234  0.8067  1.0000  -0.9852   0.0000   0.0000   0.0000   0.3975
   4.250   0.8556   0.03763   0.02765  -0.1248  0.7918  1.0000  -1.0956   0.0000   0.0000   0.0000   0.3917
   4.500   0.8815   0.03837   0.02855  -0.1244  0.7743  1.0000  -1.2234   0.0000   0.0000   0.0000   0.3867
   4.750   0.9266   0.03807   0.02855  -0.1256  0.7593  1.0000  -1.4120   0.0000   0.0000   0.0000   0.3809
   5.000   0.9537   0.03859   0.02927  -0.1248  0.7408  1.0000  -1.5533   0.0000   0.0000   0.0000   0.3760
   5.250   0.9911   0.03833   0.02927  -0.1244  0.7231  1.0000  -1.7650   0.0000   0.0000   0.0000   0.3704
   5.500   1.0384   0.03711   0.02845  -0.1241  0.7050  1.0000  -2.0270   0.0000   0.0000   0.0000   0.3642
   5.750   1.0798   0.03592   0.02757  -0.1228  0.6831  1.0000  -2.2782   0.0000   0.0000   0.0000   0.3581
   6.000   1.1113   0.03510   0.02704  -0.1201  0.6558  1.0000  -2.5071   0.0000   0.0000   0.0000   0.3522
   6.250   1.1583   0.03234   0.02456  -0.1170  0.6204  1.0000  -2.8601   0.0000   0.0000   0.0000   0.3448
   6.500   1.1924   0.02991   0.02223  -0.1122  0.5713  1.0000  -3.1677   0.0000   0.0000   0.0000   0.3375
   6.750   1.2125   0.02857   0.02089  -0.1067  0.5134  1.0000  -3.4027   0.0000   0.0000   0.0000   0.3309
   7.000   1.2184   0.02813   0.02030  -0.0999  0.4373  1.0000  -3.5546   0.0000   0.0000   0.0000   0.3246
   7.250   1.2077   0.02922   0.02079  -0.0919  0.3213  1.0000  -3.5975   0.0000   0.0000   0.0000   0.3182
   7.500   1.1971   0.03233   0.02274  -0.0857  0.2243  1.0000  -3.5980   0.0000   0.0000   0.0000   0.3134
   7.750   1.2010   0.03549   0.02528  -0.0821  0.1712  1.0000  -3.6354   0.0000   0.0000   0.0000   0.3099
   8.000   1.2172   0.03840   0.02791  -0.0799  0.1389  1.0000  -3.7127   0.0000   0.0000   0.0000   0.3068
   8.250   1.2559   0.04192   0.03128  -0.0800  0.1198  1.0000  -3.8831   0.0000   0.0000   0.0000   0.3046
   8.500   1.2925   0.04579   0.03529  -0.0801  0.1099  1.0000  -4.0495   0.0000   0.0000   0.0000   0.3025
   8.750   1.3168   0.04936   0.03898  -0.0793  0.1009  1.0000  -4.2051   0.0000   0.0000   0.0000   0.3005
   9.000   1.3254   0.05261   0.04290  -0.0764  0.0958  1.0000  -4.2612   0.0000   0.0000   0.0000   0.2976
   9.250   1.3410   0.05666   0.04729  -0.0747  0.0929  1.0000  -4.3460   0.0000   0.0000   0.0000   0.2954
   9.500   1.3546   0.06128   0.05220  -0.0730  0.0915  1.0000  -4.4152   0.0000   0.0000   0.0000   0.2933
   9.750   1.3577   0.06585   0.05721  -0.0704  0.0913  1.0000  -4.4303   0.0000   0.0000   0.0000   0.2911
  10.000   1.3454   0.06987   0.06182  -0.0667  0.0919  1.0000  -4.3793   0.0000   0.0000   0.0000   0.2885
  10.250   1.3251   0.07402   0.06649  -0.0629  0.0930  1.0000  -4.2997   0.0000   0.0000   0.0000   0.2862
  10.500   1.2999   0.07811   0.07096  -0.0593  0.0941  1.0000  -4.2146   0.0000   0.0000   0.0000   0.2841
  10.750   1.2715   0.08251   0.07565  -0.0568  0.0952  1.0000  -4.1229   0.0000   0.0000   0.0000   0.2829
  11.000   1.2429   0.08759   0.08096  -0.0560  0.0963  1.0000  -4.0257   0.0000   0.0000   0.0000   0.2830
  11.250   1.2148   0.09344   0.08701  -0.0568  0.0975  1.0000  -3.9213   0.0000   0.0000   0.0000   0.2844
  11.500   1.1891   0.10006   0.09376  -0.0591  0.0988  1.0000  -3.8131   0.0000   0.0000   0.0000   0.2871
  11.750   1.1689   0.10712   0.10090  -0.0620  0.1001  1.0000  -3.7152   0.0000   0.0000   0.0000   0.2902
  12.000   1.1571   0.11403   0.10789  -0.0646  0.1014  1.0000  -3.6452   0.0000   0.0000   0.0000   0.2928
  12.250   1.0914   0.13245   0.12628  -0.0815  0.1093  1.0000  -3.1042   0.0000   0.0000   0.0000   0.3117
  12.500   1.0906   0.13924   0.13308  -0.0838  0.1119  1.0000  -3.0515   0.0000   0.0000   0.0000   0.3137
  13.000   1.0520   0.16372   0.15734  -0.1020  0.1403  1.0000  -2.4760   0.0000   0.0000   0.0000   0.3338


