xflr5 v6.61

 Calculated polar for: BLD_100

 1 1 Reynolds number fixed          Mach number fixed         

 xtrf =   1.000 (top)        1.000 (bottom)
 Mach =   0.200     Re =     0.090 e 6     Ncrit =   9.000

  alpha     CL        CD       CDp       Cm    Top Xtr Bot Xtr   Cpmin    Chinge    XCp    
 ------- -------- --------- --------- -------- ------- ------- -------- --------- ---------
 -17.000  -0.5882   0.21355   0.20763   0.0174  1.0000  0.0342  -1.5271   0.0000   0.0000   0.0000   0.2710
 -16.500  -0.5700   0.20681   0.20089   0.0144  1.0000  0.0363  -1.4780   0.0000   0.0000   0.0000   0.2670
 -16.000  -0.5525   0.20062   0.19471   0.0108  1.0000  0.0388  -1.4656   0.0000   0.0000   0.0000   0.2617
 -15.500  -0.5368   0.19566   0.18975   0.0064  1.0000  0.0409  -1.5032   0.0000   0.0000   0.0000   0.2545
 -15.000  -0.5287   0.19398   0.18813   0.0010  1.0000  0.0416  -1.6040   0.0000   0.0000   0.0000   0.2448
 -14.500  -0.5054   0.18231   0.17648  -0.0002  1.0000  0.0428  -1.5003   0.0000   0.0000   0.0000   0.2426
 -14.000  -0.4875   0.17494   0.16911  -0.0022  1.0000  0.0452  -1.4219   0.0000   0.0000   0.0000   0.2387
 -13.500  -0.4722   0.16860   0.16279  -0.0050  1.0000  0.0479  -1.4243   0.0000   0.0000   0.0000   0.2327
 -12.500  -0.4595   0.16160   0.15589  -0.0143  1.0000  0.0514  -1.6331   0.0000   0.0000   0.0000   0.2130
 -12.000  -0.4319   0.14929   0.14358  -0.0135  1.0000  0.0543  -1.4911   0.0000   0.0000   0.0000   0.2128
 -11.500  -0.4183   0.14295   0.13726  -0.0157  1.0000  0.0585  -1.4796   0.0000   0.0000   0.0000   0.2068
 -11.000  -0.4152   0.13934   0.13374  -0.0205  1.0000  0.0615  -1.5887   0.0000   0.0000   0.0000   0.1954
 -10.500  -0.4007   0.13103   0.12548  -0.0219  1.0000  0.0631  -1.5702   0.0000   0.0000   0.0000   0.1901
 -10.000  -0.3842   0.12376   0.11822  -0.0225  1.0000  0.0673  -1.4981   0.0000   0.0000   0.0000   0.1862
  -9.750  -0.3267   0.12020   0.11504  -0.0327  1.0000  0.0725  -1.4574   0.0000   0.0000   0.0000   0.1462
  -9.500  -0.3790   0.11886   0.11341  -0.0261  1.0000  0.0716  -1.5541   0.0000   0.0000   0.0000   0.1764
  -9.250  -0.3029   0.11026   0.10513  -0.0308  1.0000  0.0764  -1.3154   0.0000   0.0000   0.0000   0.1444
  -9.000  -0.3910   0.11697   0.11170  -0.0325  1.0000  0.0727  -1.7382   0.0000   0.0000   0.0000   0.1628
  -8.750  -0.3011   0.10475   0.09971  -0.0320  1.0000  0.0818  -1.3352   0.0000   0.0000   0.0000   0.1403
  -8.500  -0.3574   0.10559   0.10029  -0.0283  1.0000  0.0784  -1.4976   0.0000   0.0000   0.0000   0.1664
  -8.250  -0.3235   0.10235   0.09752  -0.0348  1.0000  0.0835  -1.5009   0.0000   0.0000   0.0000   0.1399
  -8.000  -0.3646   0.10209   0.09697  -0.0313  1.0000  0.0829  -1.5996   0.0000   0.0000   0.0000   0.1603
  -7.750  -0.2992   0.09299   0.08817  -0.0311  1.0000  0.0915  -1.3706   0.0000   0.0000   0.0000   0.1432
  -7.500  -0.3556   0.09513   0.09012  -0.0294  1.0000  0.0872  -1.5615   0.0000   0.0000   0.0000   0.1638
  -7.250  -0.3295   0.09088   0.08633  -0.0297  1.0000  0.0942  -1.4972   0.0000   0.0000   0.0000   0.1577
  -7.000  -0.3663   0.09143   0.08661  -0.0284  1.0000  0.0930  -1.6100   0.0000   0.0000   0.0000   0.1694
  -6.750  -0.3257   0.08395   0.07949  -0.0253  1.0000  0.0985  -1.4427   0.0000   0.0000   0.0000   0.1703
  -6.500  -0.3724   0.08633   0.08166  -0.0294  1.0000  0.0964  -1.6699   0.0000   0.0000   0.0000   0.1685
  -6.250  -0.3427   0.08012   0.07583  -0.0233  1.0000  0.1037  -1.4874   0.0000   0.0000   0.0000   0.1807
  -6.000  -0.3699   0.08127   0.07671  -0.0284  1.0000  0.1035  -1.6553   0.0000   0.0000   0.0000   0.1709
  -5.500  -0.3655   0.07543   0.07094  -0.0303  1.0000  0.1088  -1.6827   0.0000   0.0000   0.0000   0.1651
  -5.250  -0.3598   0.07274   0.06827  -0.0306  1.0000  0.1136  -1.6677   0.0000   0.0000   0.0000   0.1631
  -5.000  -0.3489   0.06921   0.06470  -0.0357  1.0000  0.1186  -1.7145   0.0000   0.0000   0.0000   0.1458
  -4.750  -0.3426   0.06652   0.06205  -0.0337  1.0000  0.1231  -1.6577   0.0000   0.0000   0.0000   0.1500
  -4.500  -0.3263   0.06291   0.05837  -0.0383  1.0000  0.1306  -1.6730   0.0000   0.0000   0.0000   0.1310
  -4.250  -0.3084   0.05971   0.05507  -0.0417  1.0000  0.1412  -1.6577   0.0000   0.0000   0.0000   0.1132
  -4.000  -0.2918   0.05670   0.05200  -0.0433  1.0000  0.1526  -1.6145   0.0000   0.0000   0.0000   0.0998
  -3.500  -0.2544   0.05072   0.04587  -0.0462  1.0000  0.1763  -1.5200   0.0000   0.0000   0.0000   0.0665
  -3.250  -0.2343   0.04792   0.04301  -0.0473  1.0000  0.1894  -1.4834   0.0000   0.0000   0.0000   0.0461
  -2.750  -0.1114   0.03265   0.02580  -0.0666  1.0000  0.0966  -1.8854   0.0000   0.0000   0.0000  -0.3525
  -2.500  -0.0730   0.02910   0.02163  -0.0691  1.0000  0.0894  -1.8973   0.0000   0.0000   0.0000  -0.7026
  -2.250  -0.0383   0.02684   0.01869  -0.0707  1.0000  0.0926  -1.8543   0.0000   0.0000   0.0000  -1.6085
  -2.000   0.0120   0.02457   0.01586  -0.0749  0.9960  0.0977  -1.7452   0.0000   0.0000   0.0000   6.5192
  -1.750   0.0616   0.02318   0.01418  -0.0791  0.9898  0.1114  -1.6065   0.0000   0.0000   0.0000   1.5397
  -1.500   0.1101   0.02209   0.01291  -0.0830  0.9831  0.1327  -1.4445   0.0000   0.0000   0.0000   1.0079
  -1.250   0.1599   0.02118   0.01205  -0.0873  0.9769  0.1691  -1.2720   0.0000   0.0000   0.0000   0.7979
  -1.000   0.2054   0.02037   0.01149  -0.0909  0.9685  0.2350  -1.1088   0.0000   0.0000   0.0000   0.6938
  -0.750   0.2511   0.01915   0.01101  -0.0946  0.9611  0.4007  -0.9389   0.0000   0.0000   0.0000   0.6276
  -0.500   0.2857   0.01765   0.01069  -0.0949  0.9510  1.0000  -0.8006   0.0000   0.0000   0.0000   0.5826
  -0.250   0.3294   0.01787   0.01055  -0.0981  0.9396  1.0000  -0.6346   0.0000   0.0000   0.0000   0.5477
   0.000   0.3721   0.01803   0.01048  -0.1010  0.9278  1.0000  -0.5393   0.0000   0.0000   0.0000   0.5210
   0.250   0.4140   0.01815   0.01042  -0.1036  0.9161  1.0000  -0.5652   0.0000   0.0000   0.0000   0.4996
   0.500   0.4556   0.01820   0.01034  -0.1061  0.9044  1.0000  -0.5918   0.0000   0.0000   0.0000   0.4820
   0.750   0.4971   0.01821   0.01024  -0.1084  0.8931  1.0000  -0.6193   0.0000   0.0000   0.0000   0.4670
   1.000   0.5358   0.01817   0.01013  -0.1100  0.8814  1.0000  -0.6462   0.0000   0.0000   0.0000   0.4541
   1.250   0.5729   0.01811   0.01002  -0.1113  0.8696  1.0000  -0.6731   0.0000   0.0000   0.0000   0.4427
   1.500   0.6087   0.01803   0.00991  -0.1121  0.8577  1.0000  -0.7002   0.0000   0.0000   0.0000   0.4326
   1.750   0.6432   0.01794   0.00982  -0.1127  0.8457  1.0000  -0.7276   0.0000   0.0000   0.0000   0.4233
   2.000   0.6766   0.01786   0.00973  -0.1130  0.8336  1.0000  -0.7554   0.0000   0.0000   0.0000   0.4149
   2.250   0.7091   0.01778   0.00965  -0.1130  0.8214  1.0000  -0.7839   0.0000   0.0000   0.0000   0.4072
   2.500   0.7369   0.01790   0.00981  -0.1125  0.8068  1.0000  -0.8102   0.0000   0.0000   0.0000   0.4002
   2.750   0.7660   0.01797   0.00991  -0.1120  0.7932  1.0000  -0.8392   0.0000   0.0000   0.0000   0.3936
   3.000   0.7953   0.01804   0.01001  -0.1116  0.7801  1.0000  -0.9095   0.0000   0.0000   0.0000   0.3875
   3.250   0.8245   0.01812   0.01016  -0.1111  0.7673  1.0000  -1.0316   0.0000   0.0000   0.0000   0.3817
   3.500   0.8536   0.01822   0.01031  -0.1106  0.7546  1.0000  -1.1685   0.0000   0.0000   0.0000   0.3763
   3.750   0.8812   0.01842   0.01059  -0.1099  0.7411  1.0000  -1.3195   0.0000   0.0000   0.0000   0.3712
   4.000   0.9073   0.01873   0.01102  -0.1091  0.7267  1.0000  -1.4721   0.0000   0.0000   0.0000   0.3666
   4.250   0.9346   0.01898   0.01137  -0.1084  0.7129  1.0000  -1.6509   0.0000   0.0000   0.0000   0.3620
   4.500   0.9624   0.01920   0.01169  -0.1076  0.6993  1.0000  -1.8535   0.0000   0.0000   0.0000   0.3576
   4.750   0.9903   0.01940   0.01203  -0.1068  0.6855  1.0000  -2.0696   0.0000   0.0000   0.0000   0.3534
   5.000   1.0152   0.01961   0.01239  -0.1054  0.6668  1.0000  -2.2800   0.0000   0.0000   0.0000   0.3491
   5.250   1.0397   0.01897   0.01172  -0.1023  0.6331  1.0000  -2.5085   0.0000   0.0000   0.0000   0.3434
   5.500   1.0611   0.01846   0.01114  -0.0989  0.5915  1.0000  -2.7462   0.0000   0.0000   0.0000   0.3379
   5.750   1.0819   0.01838   0.01110  -0.0962  0.5529  1.0000  -2.9835   0.0000   0.0000   0.0000   0.3333
   6.000   1.0993   0.01840   0.01114  -0.0929  0.5013  1.0000  -3.1997   0.0000   0.0000   0.0000   0.3286
   6.250   1.1052   0.01893   0.01127  -0.0877  0.3699  1.0000  -3.3323   0.0000   0.0000   0.0000   0.3230
   6.500   1.0909   0.02291   0.01331  -0.0815  0.1364  1.0000  -3.3258   0.0000   0.0000   0.0000   0.3182
   6.750   1.0965   0.02533   0.01543  -0.0780  0.1027  1.0000  -3.3975   0.0000   0.0000   0.0000   0.3143
   7.000   1.1060   0.02729   0.01735  -0.0749  0.0885  1.0000  -3.5063   0.0000   0.0000   0.0000   0.3106
   7.250   1.1192   0.02922   0.01921  -0.0723  0.0779  1.0000  -3.6506   0.0000   0.0000   0.0000   0.3072
   7.500   1.1412   0.03145   0.02139  -0.0707  0.0711  1.0000  -3.8041   0.0000   0.0000   0.0000   0.3042
   7.750   1.1686   0.03409   0.02393  -0.0701  0.0642  1.0000  -3.9903   0.0000   0.0000   0.0000   0.3020
   8.000   1.1981   0.03671   0.02684  -0.0694  0.0605  1.0000  -4.1307   0.0000   0.0000   0.0000   0.2996
   8.250   1.2262   0.03981   0.03005  -0.0690  0.0570  1.0000  -4.2923   0.0000   0.0000   0.0000   0.2977
   8.500   1.2477   0.04341   0.03400  -0.0677  0.0547  1.0000  -4.3900   0.0000   0.0000   0.0000   0.2954
   8.750   1.2651   0.04696   0.03804  -0.0657  0.0543  1.0000  -4.4563   0.0000   0.0000   0.0000   0.2928
   9.000   1.2790   0.05099   0.04251  -0.0636  0.0546  1.0000  -4.5279   0.0000   0.0000   0.0000   0.2903
   9.250   1.2908   0.05560   0.04748  -0.0616  0.0553  1.0000  -4.5895   0.0000   0.0000   0.0000   0.2881
   9.500   1.3000   0.06061   0.05280  -0.0598  0.0557  1.0000  -4.6397   0.0000   0.0000   0.0000   0.2861
   9.750   1.2865   0.06258   0.05560  -0.0545  0.0573  1.0000  -4.5542   0.0000   0.0000   0.0000   0.2822
  10.000   1.2674   0.06685   0.06047  -0.0502  0.0597  1.0000  -4.4196   0.0000   0.0000   0.0000   0.2793
  10.250   1.2504   0.07092   0.06489  -0.0468  0.0611  1.0000  -4.3536   0.0000   0.0000   0.0000   0.2768
  10.500   1.2326   0.07496   0.06916  -0.0440  0.0623  1.0000  -4.3018   0.0000   0.0000   0.0000   0.2748
  10.750   1.2157   0.07933   0.07372  -0.0422  0.0633  1.0000  -4.2579   0.0000   0.0000   0.0000   0.2736
  11.000   1.2040   0.08427   0.07879  -0.0414  0.0644  1.0000  -4.2355   0.0000   0.0000   0.0000   0.2730
  11.250   1.1596   0.09009   0.08501  -0.0427  0.0686  1.0000  -3.9834   0.0000   0.0000   0.0000   0.2752
  11.500   1.1242   0.09790   0.09302  -0.0468  0.0713  1.0000  -3.7838   0.0000   0.0000   0.0000   0.2797
  11.750   1.1074   0.10502   0.10021  -0.0499  0.0737  1.0000  -3.6890   0.0000   0.0000   0.0000   0.2828
  12.000   1.0605   0.11918   0.11449  -0.0620  0.0791  1.0000  -3.2748   0.0000   0.0000   0.0000   0.2962
  12.250   1.0201   0.15223   0.14747  -0.0849  0.1707  1.0000  -2.3033   0.0000   0.0000   0.0000   0.3218
  12.500   0.9959   0.15783   0.15296  -0.0914  0.1628  1.0000  -2.1725   0.0000   0.0000   0.0000   0.3301
  12.750   1.0230   0.16212   0.15734  -0.0876  0.1598  1.0000  -2.2953   0.0000   0.0000   0.0000   0.3237
  13.000   0.9995   0.16700   0.16210  -0.0946  0.1516  1.0000  -2.1449   0.0000   0.0000   0.0000   0.3324
  13.250   1.0175   0.17173   0.16687  -0.0928  0.1487  1.0000  -2.2397   0.0000   0.0000   0.0000   0.3287
  13.500   1.0032   0.17603   0.17110  -0.0985  0.1412  1.0000  -2.1319   0.0000   0.0000   0.0000   0.3354
  13.750   1.0220   0.18080   0.17591  -0.0965  0.1379  1.0000  -2.2349   0.0000   0.0000   0.0000   0.3313
  14.000   1.0085   0.18475   0.17979  -0.1026  0.1313  1.0000  -2.1184   0.0000   0.0000   0.0000   0.3383
  14.250   1.0268   0.18945   0.18453  -0.1008  0.1272  1.0000  -2.2225   0.0000   0.0000   0.0000   0.3344
  14.500   1.0157   0.19306   0.18807  -0.1067  0.1214  1.0000  -2.1096   0.0000   0.0000   0.0000   0.3409
  14.750   1.0329   0.19772   0.19278  -0.1052  0.1164  1.0000  -2.2098   0.0000   0.0000   0.0000   0.3374
  15.000   1.0253   0.20101   0.19600  -0.1106  0.1111  1.0000  -2.1112   0.0000   0.0000   0.0000   0.3431


