xflr5 v6.61

 Calculated polar for: BLD_25

 1 1 Reynolds number fixed          Mach number fixed         

 xtrf =   1.000 (top)        1.000 (bottom)
 Mach =   0.200     Re =     0.050 e 6     Ncrit =   9.000

  alpha     CL        CD       CDp       Cm    Top Xtr Bot Xtr   Cpmin    Chinge    XCp    
 ------- -------- --------- --------- -------- ------- ------- -------- --------- ---------
 -16.000  -0.4874   0.20287   0.19461  -0.0107  1.0000  0.0687  -1.2657   0.0000   0.0000   0.0000   0.2191
 -15.500  -0.4728   0.19719   0.18897  -0.0127  1.0000  0.0722  -1.2646   0.0000   0.0000   0.0000   0.2144
 -15.000  -0.4627   0.19371   0.18555  -0.0155  1.0000  0.0751  -1.3086   0.0000   0.0000   0.0000   0.2081
 -14.500  -0.4509   0.18817   0.18009  -0.0176  1.0000  0.0765  -1.3309   0.0000   0.0000   0.0000   0.2028
 -14.000  -0.4330   0.18018   0.17207  -0.0182  1.0000  0.0805  -1.2838   0.0000   0.0000   0.0000   0.1998
 -13.500  -0.4222   0.17535   0.16730  -0.0201  1.0000  0.0848  -1.2985   0.0000   0.0000   0.0000   0.1946
 -13.000  -0.4229   0.17464   0.16670  -0.0233  1.0000  0.0865  -1.3837   0.0000   0.0000   0.0000   0.1878
 -12.500  -0.3979   0.16340   0.15549  -0.0225  1.0000  0.0924  -1.2829   0.0000   0.0000   0.0000   0.1862
 -12.000  -0.3953   0.16067   0.15286  -0.0247  1.0000  0.0967  -1.3317   0.0000   0.0000   0.0000   0.1805
 -11.500  -0.3781   0.15235   0.14461  -0.0246  1.0000  0.1012  -1.2773   0.0000   0.0000   0.0000   0.1781
 -11.000  -0.3731   0.14824   0.14060  -0.0259  1.0000  0.1067  -1.2939   0.0000   0.0000   0.0000   0.1741
 -10.500  -0.3623   0.14171   0.13417  -0.0261  1.0000  0.1104  -1.2727   0.0000   0.0000   0.0000   0.1715
 -10.000  -0.3558   0.13684   0.12934  -0.0266  1.0000  0.1171  -1.2646   0.0000   0.0000   0.0000   0.1692
  -9.750  -0.3619   0.13656   0.12915  -0.0276  1.0000  0.1185  -1.3090   0.0000   0.0000   0.0000   0.1680
  -9.500  -0.3487   0.13109   0.12371  -0.0266  1.0000  0.1212  -1.2529   0.0000   0.0000   0.0000   0.1678
  -9.250  -0.3434   0.12816   0.12082  -0.0263  1.0000  0.1251  -1.2318   0.0000   0.0000   0.0000   0.1677
  -9.000  -0.3461   0.12682   0.11957  -0.0267  1.0000  0.1284  -1.2538   0.0000   0.0000   0.0000   0.1675
  -8.750  -0.3565   0.12694   0.11981  -0.0274  1.0000  0.1295  -1.3116   0.0000   0.0000   0.0000   0.1683
  -8.500  -0.3371   0.12058   0.11345  -0.0257  1.0000  0.1341  -1.2536   0.0000   0.0000   0.0000   0.1685
  -8.250  -0.3384   0.11878   0.11173  -0.0255  1.0000  0.1383  -1.2722   0.0000   0.0000   0.0000   0.1697
  -8.000  -0.3505   0.11882   0.11191  -0.0255  1.0000  0.1402  -1.3264   0.0000   0.0000   0.0000   0.1727
  -7.750  -0.3355   0.11353   0.10664  -0.0241  1.0000  0.1443  -1.2867   0.0000   0.0000   0.0000   0.1734
  -7.500  -0.3379   0.11175   0.10496  -0.0233  1.0000  0.1489  -1.3015   0.0000   0.0000   0.0000   0.1766
  -7.250  -0.3536   0.11187   0.10523  -0.0223  1.0000  0.1509  -1.3527   0.0000   0.0000   0.0000   0.1830
  -7.000  -0.3404   0.10712   0.10051  -0.0209  1.0000  0.1553  -1.3199   0.0000   0.0000   0.0000   0.1845
  -6.750  -0.3469   0.10570   0.09919  -0.0194  1.0000  0.1599  -1.3371   0.0000   0.0000   0.0000   0.1905
  -6.500  -0.3626   0.10578   0.09943  -0.0198  1.0000  0.1621  -1.3959   0.0000   0.0000   0.0000   0.1921
  -6.250  -0.3498   0.10104   0.09472  -0.0168  1.0000  0.1681  -1.3496   0.0000   0.0000   0.0000   0.1986
  -6.000  -0.3589   0.10033   0.09415  -0.0184  1.0000  0.1728  -1.3970   0.0000   0.0000   0.0000   0.1957
  -5.750  -0.3511   0.09650   0.09037  -0.0156  1.0000  0.1798  -1.3640   0.0000   0.0000   0.0000   0.2027
  -5.250  -0.3519   0.09248   0.08653  -0.0177  1.0000  0.1946  -1.3985   0.0000   0.0000   0.0000   0.1970
  -5.000  -0.3466   0.08927   0.08339  -0.0155  1.0000  0.2033  -1.3760   0.0000   0.0000   0.0000   0.2027
  -4.750  -0.3423   0.08651   0.08070  -0.0153  1.0000  0.2116  -1.3717   0.0000   0.0000   0.0000   0.2028
  -4.500  -0.3370   0.08382   0.07807  -0.0161  1.0000  0.2211  -1.3716   0.0000   0.0000   0.0000   0.1998
  -4.250  -0.3297   0.08106   0.07531  -0.0171  1.0000  0.2315  -1.3682   0.0000   0.0000   0.0000   0.1958
  -4.000  -0.3208   0.07821   0.07251  -0.0180  1.0000  0.2428  -1.3600   0.0000   0.0000   0.0000   0.1914
  -3.750  -0.3104   0.07535   0.06970  -0.0190  1.0000  0.2561  -1.3473   0.0000   0.0000   0.0000   0.1865
  -3.500  -0.2951   0.07242   0.06678  -0.0225  1.0000  0.2732  -1.3406   0.0000   0.0000   0.0000   0.1714
  -3.250  -0.2841   0.06948   0.06389  -0.0217  1.0000  0.2886  -1.3135   0.0000   0.0000   0.0000   0.1714
  -3.000  -0.2686   0.06654   0.06097  -0.0231  1.0000  0.3091  -1.2899   0.0000   0.0000   0.0000   0.1618
  -2.250  -0.0140   0.04345   0.03618  -0.0872  1.0000  0.1470  -1.5044   0.0000   0.0000   0.0000  -6.0075
  -2.000   0.0730   0.03659   0.02810  -0.1021  1.0000  0.1283  -1.6211   0.0000   0.0000   0.0000   1.6556
  -1.750   0.1141   0.03446   0.02563  -0.1059  1.0000  0.1442  -1.5681   0.0000   0.0000   0.0000   1.1824
  -1.500   0.1574   0.03246   0.02323  -0.1097  1.0000  0.1674  -1.5340   0.0000   0.0000   0.0000   0.9494
  -1.250   0.2017   0.03063   0.02089  -0.1131  1.0000  0.1939  -1.4921   0.0000   0.0000   0.0000   0.8124
  -1.000   0.2382   0.02953   0.01961  -0.1150  1.0000  0.2229  -1.3886   0.0000   0.0000   0.0000   0.7341
  -0.750   0.2738   0.02875   0.01867  -0.1167  1.0000  0.2623  -1.2624   0.0000   0.0000   0.0000   0.6771
  -0.500   0.3067   0.02817   0.01811  -0.1178  1.0000  0.3203  -1.1295   0.0000   0.0000   0.0000   0.6345
  -0.250   0.3418   0.02749   0.01769  -0.1192  1.0000  0.4218  -1.0085   0.0000   0.0000   0.0000   0.5988
   0.000   0.3749   0.02552   0.01729  -0.1187  1.0000  0.7536  -0.8854   0.0000   0.0000   0.0000   0.5662
   0.250   0.3828   0.02590   0.01726  -0.1163  1.0000  1.0000  -0.8230   0.0000   0.0000   0.0000   0.5532
   0.500   0.4068   0.02678   0.01774  -0.1168  1.0000  1.0000  -0.7011   0.0000   0.0000   0.0000   0.5362
   0.750   0.4289   0.02775   0.01844  -0.1171  1.0000  1.0000  -0.5831   0.0000   0.0000   0.0000   0.5218
   1.000   0.4498   0.02882   0.01929  -0.1174  1.0000  1.0000  -0.5749   0.0000   0.0000   0.0000   0.5095
   1.250   0.4697   0.02998   0.02031  -0.1177  1.0000  1.0000  -0.5927   0.0000   0.0000   0.0000   0.4988
   1.500   0.4886   0.03126   0.02147  -0.1180  1.0000  1.0000  -0.6105   0.0000   0.0000   0.0000   0.4894
   1.750   0.5193   0.03271   0.02282  -0.1206  0.9930  1.0000  -0.6378   0.0000   0.0000   0.0000   0.4799
   2.000   0.5734   0.03407   0.02406  -0.1270  0.9731  1.0000  -0.6847   0.0000   0.0000   0.0000   0.4689
   2.250   0.6233   0.03508   0.02499  -0.1322  0.9530  1.0000  -0.7316   0.0000   0.0000   0.0000   0.4593
   2.500   0.6711   0.03588   0.02575  -0.1366  0.9328  1.0000  -0.7820   0.0000   0.0000   0.0000   0.4505
   2.750   0.7172   0.03649   0.02636  -0.1404  0.9124  1.0000  -0.8363   0.0000   0.0000   0.0000   0.4425
   3.000   0.7620   0.03691   0.02684  -0.1435  0.8915  1.0000  -0.8950   0.0000   0.0000   0.0000   0.4349
   3.250   0.8058   0.03714   0.02713  -0.1462  0.8704  1.0000  -0.9551   0.0000   0.0000   0.0000   0.4277
   3.500   0.8493   0.03718   0.02726  -0.1483  0.8493  1.0000  -1.0215   0.0000   0.0000   0.0000   0.4206
   3.750   0.8928   0.03700   0.02723  -0.1500  0.8280  1.0000  -1.0931   0.0000   0.0000   0.0000   0.4138
   4.000   0.9367   0.03655   0.02692  -0.1512  0.8068  1.0000  -1.1731   0.0000   0.0000   0.0000   0.4070
   4.250   0.9826   0.03568   0.02621  -0.1521  0.7858  1.0000  -1.2706   0.0000   0.0000   0.0000   0.4001
   4.500   1.0316   0.03437   0.02514  -0.1528  0.7643  1.0000  -1.3959   0.0000   0.0000   0.0000   0.3932
   4.750   1.0844   0.03273   0.02371  -0.1536  0.7413  1.0000  -1.5323   0.0000   0.0000   0.0000   0.3864
   5.000   1.1417   0.03068   0.02186  -0.1545  0.7161  1.0000  -1.7182   0.0000   0.0000   0.0000   0.3798
   5.250   1.1845   0.02958   0.02097  -0.1537  0.6842  1.0000  -1.9242   0.0000   0.0000   0.0000   0.3740
   5.500   1.2210   0.02899   0.02045  -0.1523  0.6480  1.0000  -2.1164   0.0000   0.0000   0.0000   0.3686
   5.750   1.2553   0.02870   0.02015  -0.1506  0.6089  1.0000  -2.3066   0.0000   0.0000   0.0000   0.3635
   6.000   1.2824   0.02896   0.02037  -0.1483  0.5679  1.0000  -2.4995   0.0000   0.0000   0.0000   0.3589
   6.250   1.3073   0.02947   0.02079  -0.1459  0.5259  1.0000  -2.6921   0.0000   0.0000   0.0000   0.3545
   6.500   1.3298   0.03023   0.02141  -0.1432  0.4836  1.0000  -2.8769   0.0000   0.0000   0.0000   0.3502
   6.750   1.3504   0.03117   0.02219  -0.1405  0.4419  1.0000  -3.0559   0.0000   0.0000   0.0000   0.3462
   7.000   1.3684   0.03235   0.02342  -0.1376  0.4015  1.0000  -3.2219   0.0000   0.0000   0.0000   0.3424
   7.250   1.3846   0.03367   0.02464  -0.1345  0.3630  1.0000  -3.3792   0.0000   0.0000   0.0000   0.3386
   7.500   1.3996   0.03500   0.02581  -0.1314  0.3254  1.0000  -3.5336   0.0000   0.0000   0.0000   0.3350
   7.750   1.4138   0.03650   0.02714  -0.1283  0.2898  1.0000  -3.6805   0.0000   0.0000   0.0000   0.3315
   8.000   1.4265   0.03831   0.02888  -0.1252  0.2566  1.0000  -3.8090   0.0000   0.0000   0.0000   0.3281
   8.250   1.4385   0.04028   0.03072  -0.1221  0.2248  1.0000  -3.9266   0.0000   0.0000   0.0000   0.3249
   8.500   1.4425   0.04199   0.03239  -0.1181  0.1956  1.0000  -4.0193   0.0000   0.0000   0.0000   0.3215
   8.750   1.4495   0.04412   0.03446  -0.1146  0.1701  1.0000  -4.1041   0.0000   0.0000   0.0000   0.3184
   9.000   1.4554   0.04641   0.03676  -0.1112  0.1484  1.0000  -4.1921   0.0000   0.0000   0.0000   0.3153
   9.250   1.4680   0.04952   0.03998  -0.1086  0.1316  1.0000  -4.2810   0.0000   0.0000   0.0000   0.3126
   9.500   1.4864   0.05327   0.04379  -0.1070  0.1194  1.0000  -4.3782   0.0000   0.0000   0.0000   0.3102
   9.750   1.4864   0.05728   0.04844  -0.1031  0.1139  1.0000  -4.3776   0.0000   0.0000   0.0000   0.3073
  10.000   1.5008   0.06142   0.05269  -0.1014  0.1083  1.0000  -4.4621   0.0000   0.0000   0.0000   0.3052
  10.250   1.4899   0.06565   0.05751  -0.0971  0.1067  1.0000  -4.4291   0.0000   0.0000   0.0000   0.3025
  10.500   1.4756   0.06989   0.06232  -0.0929  0.1057  1.0000  -4.3934   0.0000   0.0000   0.0000   0.3000
  10.750   1.4563   0.07395   0.06675  -0.0886  0.1053  1.0000  -4.3492   0.0000   0.0000   0.0000   0.2976
  11.000   1.4337   0.07825   0.07137  -0.0849  0.1052  1.0000  -4.2946   0.0000   0.0000   0.0000   0.2957
  11.250   1.4079   0.08297   0.07627  -0.0821  0.1055  1.0000  -4.2265   0.0000   0.0000   0.0000   0.2946
  11.500   1.3801   0.08827   0.08183  -0.0807  0.1061  1.0000  -4.1461   0.0000   0.0000   0.0000   0.2944
  11.750   1.3518   0.09427   0.08804  -0.0807  0.1068  1.0000  -4.0554   0.0000   0.0000   0.0000   0.2953
  12.000   1.3244   0.10101   0.09494  -0.0822  0.1076  1.0000  -3.9565   0.0000   0.0000   0.0000   0.2974
  12.250   1.2996   0.10839   0.10244  -0.0850  0.1084  1.0000  -3.8536   0.0000   0.0000   0.0000   0.3004
  13.250   1.1486   0.16579   0.15972  -0.1276  0.1341  1.0000  -2.5776   0.0000   0.0000   0.0000   0.3461
  13.500   1.1472   0.17308   0.16698  -0.1312  0.1381  1.0000  -2.4945   0.0000   0.0000   0.0000   0.3492
  14.250   1.1216   0.20291   0.19673  -0.1555  0.2302  1.0000  -1.9283   0.0000   0.0000   0.0000   0.3732
  14.500   1.1422   0.20955   0.20344  -0.1551  0.2257  1.0000  -1.9790   0.0000   0.0000   0.0000   0.3701
  14.750   1.1325   0.21147   0.20530  -0.1594  0.2222  1.0000  -1.9109   0.0000   0.0000   0.0000   0.3746
  15.000   1.1431   0.21598   0.20984  -0.1604  0.2164  1.0000  -1.9272   0.0000   0.0000   0.0000   0.3738
  15.500   0.8593   0.20016   0.19444  -0.1204  0.2183  1.0000  -1.3503   0.0000   0.0000   0.0000   0.3750
  16.000   0.8594   0.20626   0.20059  -0.1219  0.2083  1.0000  -1.3223   0.0000   0.0000   0.0000   0.3761
  16.500   0.8607   0.21245   0.20682  -0.1234  0.1992  1.0000  -1.2970   0.0000   0.0000   0.0000   0.3771
  17.000   0.8643   0.21892   0.21333  -0.1249  0.1907  1.0000  -1.2787   0.0000   0.0000   0.0000   0.3776
  17.500   0.8720   0.22620   0.22066  -0.1260  0.1819  1.0000  -1.2747   0.0000   0.0000   0.0000   0.3769
  18.000   0.8760   0.23259   0.22709  -0.1275  0.1714  1.0000  -1.2777   0.0000   0.0000   0.0000   0.3771
  18.500   0.8794   0.23881   0.23336  -0.1290  0.1608  1.0000  -1.2872   0.0000   0.0000   0.0000   0.3776
  19.000   0.8805   0.24435   0.23896  -0.1310  0.1520  1.0000  -1.2790   0.0000   0.0000   0.0000   0.3789
  19.500   0.8791   0.25013   0.24477  -0.1335  0.1460  1.0000  -1.2452   0.0000   0.0000   0.0000   0.3813
  20.000   0.8889   0.25829   0.25298  -0.1345  0.1396  1.0000  -1.2794   0.0000   0.0000   0.0000   0.3799


