xflr5 v6.61

 Calculated polar for: BLD_100

 1 1 Reynolds number fixed          Mach number fixed         

 xtrf =   1.000 (top)        1.000 (bottom)
 Mach =   0.200     Re =     0.125 e 6     Ncrit =   7.000

  alpha     CL        CD       CDp       Cm    Top Xtr Bot Xtr   Cpmin    Chinge    XCp    
 ------- -------- --------- --------- -------- ------- ------- -------- --------- ---------
 -19.500  -0.4431   0.21029   0.20577   0.0036  1.0000  0.0200  -1.0856   0.0000   0.0000   0.0000   0.2527
 -19.000  -0.4333   0.20528   0.20074   0.0016  1.0000  0.0209  -1.0470   0.0000   0.0000   0.0000   0.2485
 -18.500  -0.4241   0.20070   0.19614  -0.0007  1.0000  0.0218  -1.0531   0.0000   0.0000   0.0000   0.2435
 -18.000  -0.4151   0.19623   0.19166  -0.0029  1.0000  0.0229  -1.0698   0.0000   0.0000   0.0000   0.2382
 -17.500  -0.4065   0.19194   0.18735  -0.0051  1.0000  0.0241  -1.0984   0.0000   0.0000   0.0000   0.2325
 -17.000  -0.3994   0.18846   0.18386  -0.0078  1.0000  0.0250  -1.1622   0.0000   0.0000   0.0000   0.2258
 -16.500  -0.3968   0.18675   0.18213  -0.0107  1.0000  0.0253  -1.2575   0.0000   0.0000   0.0000   0.2184
 -16.000  -0.3863   0.18030   0.17569  -0.0120  1.0000  0.0259  -1.2328   0.0000   0.0000   0.0000   0.2142
 -15.500  -0.3758   0.17513   0.17050  -0.0129  1.0000  0.0275  -1.1533   0.0000   0.0000   0.0000   0.2109
 -15.000  -0.3693   0.17143   0.16679  -0.0145  1.0000  0.0290  -1.1443   0.0000   0.0000   0.0000   0.2061
 -14.500  -0.3631   0.16752   0.16287  -0.0162  1.0000  0.0306  -1.1533   0.0000   0.0000   0.0000   0.2007
 -14.000  -0.3594   0.16381   0.15916  -0.0183  1.0000  0.0321  -1.2308   0.0000   0.0000   0.0000   0.1943
 -13.500  -0.3627   0.16135   0.15670  -0.0209  1.0000  0.0327  -1.3653   0.0000   0.0000   0.0000   0.1876
 -13.000  -0.3684   0.15856   0.15393  -0.0235  1.0000  0.0329  -1.4975   0.0000   0.0000   0.0000   0.1817
 -12.500  -0.3431   0.14747   0.14284  -0.0226  1.0000  0.0344  -1.3403   0.0000   0.0000   0.0000   0.1794
 -12.000  -0.3348   0.14159   0.13697  -0.0236  1.0000  0.0361  -1.3210   0.0000   0.0000   0.0000   0.1747
 -11.500  -0.3280   0.13574   0.13114  -0.0251  1.0000  0.0385  -1.3344   0.0000   0.0000   0.0000   0.1688
 -11.000  -0.3272   0.13086   0.12629  -0.0280  1.0000  0.0411  -1.4396   0.0000   0.0000   0.0000   0.1599
 -10.500  -0.3349   0.12702   0.12254  -0.0321  1.0000  0.0416  -1.6069   0.0000   0.0000   0.0000   0.1501
 -10.000  -0.3105   0.11683   0.11235  -0.0300  1.0000  0.0438  -1.4223   0.0000   0.0000   0.0000   0.1490
  -9.500  -0.3021   0.11048   0.10605  -0.0308  1.0000  0.0463  -1.3896   0.0000   0.0000   0.0000   0.1440
  -9.000  -0.2983   0.10442   0.10006  -0.0322  1.0000  0.0493  -1.4135   0.0000   0.0000   0.0000   0.1383
  -8.500  -0.3086   0.09997   0.09574  -0.0351  1.0000  0.0511  -1.5632   0.0000   0.0000   0.0000   0.1329
  -6.500  -0.3723   0.08306   0.07908  -0.0277  1.0000  0.0550  -1.7761   0.0000   0.0000   0.0000   0.1728
  -6.000  -0.3740   0.07814   0.07424  -0.0282  1.0000  0.0581  -1.8037   0.0000   0.0000   0.0000   0.1724
  -3.500  -0.0522   0.02475   0.01758  -0.0884  0.9698  0.0432  -2.5287   0.0000   0.0000   0.0000  -1.4582
  -3.000   0.0291   0.02087   0.01270  -0.0933  0.9602  0.0510  -2.2519   0.0000   0.0000   0.0000   3.4864
  -2.500   0.1074   0.01821   0.00969  -0.0976  0.9499  0.0648  -1.8779   0.0000   0.0000   0.0000   1.1648
  -2.000   0.1852   0.01656   0.00793  -0.1016  0.9383  0.0949  -1.4983   0.0000   0.0000   0.0000   0.8017
  -1.500   0.2613   0.01517   0.00685  -0.1055  0.9257  0.1698  -1.1372   0.0000   0.0000   0.0000   0.6553
  -1.000   0.3328   0.01381   0.00620  -0.1085  0.9117  0.3708  -0.8091   0.0000   0.0000   0.0000   0.5766
  -0.500   0.3936   0.01209   0.00570  -0.1078  0.8933  1.0000  -0.5583   0.0000   0.0000   0.0000   0.5239
   0.000   0.4575   0.01196   0.00524  -0.1084  0.8722  1.0000  -0.6010   0.0000   0.0000   0.0000   0.4865
   0.500   0.5184   0.01186   0.00491  -0.1084  0.8484  1.0000  -0.6441   0.0000   0.0000   0.0000   0.4582
   1.000   0.5775   0.01181   0.00468  -0.1080  0.8227  1.0000  -0.6886   0.0000   0.0000   0.0000   0.4356
   1.500   0.6341   0.01189   0.00462  -0.1072  0.7933  1.0000  -0.7341   0.0000   0.0000   0.0000   0.4173
   2.000   0.6905   0.01203   0.00463  -0.1063  0.7636  1.0000  -0.7828   0.0000   0.0000   0.0000   0.4018
   2.500   0.7457   0.01230   0.00482  -0.1053  0.7325  1.0000  -0.8347   0.0000   0.0000   0.0000   0.3887
   3.500   0.8547   0.01311   0.00560  -0.1034  0.6724  1.0000  -1.2151   0.0000   0.0000   0.0000   0.3676
   4.000   0.9086   0.01364   0.00620  -0.1024  0.6436  1.0000  -1.5318   0.0000   0.0000   0.0000   0.3588
   4.500   0.9620   0.01422   0.00689  -0.1012  0.6153  1.0000  -1.9248   0.0000   0.0000   0.0000   0.3509
   5.000   1.0094   0.01461   0.00728  -0.0983  0.5593  1.0000  -2.3433   0.0000   0.0000   0.0000   0.3426
   5.500   1.0523   0.01520   0.00776  -0.0948  0.4796  1.0000  -2.7855   0.0000   0.0000   0.0000   0.3347
   6.000   1.0857   0.01663   0.00867  -0.0901  0.3124  1.0000  -3.2068   0.0000   0.0000   0.0000   0.3270
   6.500   1.0936   0.02171   0.01206  -0.0833  0.0694  1.0000  -3.4311   0.0000   0.0000   0.0000   0.3196
   7.000   1.1198   0.02469   0.01515  -0.0784  0.0495  1.0000  -3.7622   0.0000   0.0000   0.0000   0.3129
   7.500   1.1450   0.02784   0.01842  -0.0735  0.0403  1.0000  -4.1110   0.0000   0.0000   0.0000   0.3065
   8.000   1.1789   0.03173   0.02243  -0.0697  0.0349  1.0000  -4.4573   0.0000   0.0000   0.0000   0.3008
   8.500   1.2217   0.03603   0.02697  -0.0674  0.0300  1.0000  -4.8524   0.0000   0.0000   0.0000   0.2963
   9.000   1.2624   0.04222   0.03382  -0.0647  0.0281  1.0000  -5.1157   0.0000   0.0000   0.0000   0.2918
   9.500   1.2805   0.04799   0.04048  -0.0596  0.0259  1.0000  -5.3181   0.0000   0.0000   0.0000   0.2865
  10.000   1.2798   0.05491   0.04823  -0.0534  0.0255  1.0000  -5.3767   0.0000   0.0000   0.0000   0.2811
  10.500   1.2579   0.06183   0.05579  -0.0464  0.0257  1.0000  -5.3368   0.0000   0.0000   0.0000   0.2757
  11.000   1.2259   0.06973   0.06424  -0.0421  0.0260  1.0000  -5.2439   0.0000   0.0000   0.0000   0.2725
  11.500   1.1884   0.07927   0.07425  -0.0417  0.0264  1.0000  -5.1094   0.0000   0.0000   0.0000   0.2726
  12.000   1.1482   0.09099   0.08635  -0.0455  0.0268  1.0000  -4.9277   0.0000   0.0000   0.0000   0.2765
  12.500   1.1078   0.10530   0.10097  -0.0536  0.0273  1.0000  -4.6848   0.0000   0.0000   0.0000   0.2846
  13.000   1.0721   0.12193   0.11776  -0.0644  0.0279  1.0000  -4.3757   0.0000   0.0000   0.0000   0.2958
  13.500   1.0504   0.13816   0.13404  -0.0741  0.0287  1.0000  -4.0876   0.0000   0.0000   0.0000   0.3059


