xflr5 v6.61

 Calculated polar for: BLD_50

 1 1 Reynolds number fixed          Mach number fixed         

 xtrf =   1.000 (top)        1.000 (bottom)
 Mach =   0.200     Re =     0.025 e 6     Ncrit =   9.000

  alpha     CL        CD       CDp       Cm    Top Xtr Bot Xtr   Cpmin    Chinge    XCp    
 ------- -------- --------- --------- -------- ------- ------- -------- --------- ---------
 -21.500  -0.6928   0.26976   0.25810   0.0305  1.0000  0.1015  -1.4064   0.0000   0.0000   0.0000   0.2817
 -21.000  -0.6769   0.26545   0.25379   0.0265  1.0000  0.1061  -1.4105   0.0000   0.0000   0.0000   0.2773
 -20.500  -0.6631   0.26295   0.25135   0.0222  1.0000  0.1082  -1.4322   0.0000   0.0000   0.0000   0.2722
 -20.000  -0.6425   0.25317   0.24154   0.0196  1.0000  0.1134  -1.3921   0.0000   0.0000   0.0000   0.2694
 -19.500  -0.6283   0.25015   0.23856   0.0156  1.0000  0.1179  -1.4021   0.0000   0.0000   0.0000   0.2643
 -19.000  -0.6099   0.24251   0.23095   0.0126  1.0000  0.1217  -1.3790   0.0000   0.0000   0.0000   0.2605
 -18.500  -0.5939   0.23745   0.22584   0.0094  1.0000  0.1277  -1.3662   0.0000   0.0000   0.0000   0.2559
 -18.000  -0.5780   0.23185   0.22031   0.0062  1.0000  0.1315  -1.3544   0.0000   0.0000   0.0000   0.2512
 -17.500  -0.5621   0.22650   0.21498   0.0033  1.0000  0.1388  -1.3330   0.0000   0.0000   0.0000   0.2467
 -17.000  -0.5448   0.21967   0.20820   0.0007  1.0000  0.1446  -1.3031   0.0000   0.0000   0.0000   0.2424
 -16.500  -0.5350   0.21762   0.20621  -0.0026  1.0000  0.1511  -1.3069   0.0000   0.0000   0.0000   0.2367
 -16.000  -0.5146   0.20879   0.19742  -0.0044  1.0000  0.1596  -1.2532   0.0000   0.0000   0.0000   0.2330
 -15.500  -0.4993   0.20269   0.19139  -0.0067  1.0000  0.1660  -1.2461   0.0000   0.0000   0.0000   0.2284
 -15.000  -0.4916   0.20038   0.18909  -0.0095  1.0000  0.1731  -1.2757   0.0000   0.0000   0.0000   0.2230
 -14.500  -0.4729   0.19233   0.18109  -0.0110  1.0000  0.1828  -1.2608   0.0000   0.0000   0.0000   0.2191
 -14.000  -0.4571   0.18559   0.17442  -0.0126  1.0000  0.1919  -1.2552   0.0000   0.0000   0.0000   0.2149
 -13.500  -0.4435   0.17959   0.16850  -0.0142  1.0000  0.2012  -1.2544   0.0000   0.0000   0.0000   0.2107
 -13.000  -0.4310   0.17378   0.16279  -0.0155  1.0000  0.2115  -1.2538   0.0000   0.0000   0.0000   0.2068
 -12.500  -0.4192   0.16805   0.15715  -0.0167  1.0000  0.2236  -1.2508   0.0000   0.0000   0.0000   0.2033
 -12.000  -0.4108   0.16319   0.15240  -0.0176  1.0000  0.2375  -1.2533   0.0000   0.0000   0.0000   0.2005
 -11.500  -0.3987   0.15680   0.14613  -0.0181  1.0000  0.2526  -1.2409   0.0000   0.0000   0.0000   0.1980
 -11.000  -0.3911   0.15177   0.14113  -0.0183  1.0000  0.2708  -1.2356   0.0000   0.0000   0.0000   0.1968
 -10.500  -0.3774   0.14487   0.13434  -0.0181  1.0000  0.2899  -1.2113   0.0000   0.0000   0.0000   0.1957
 -10.000  -0.3680   0.13898   0.12858  -0.0177  1.0000  0.3093  -1.1952   0.0000   0.0000   0.0000   0.1956
  -9.500  -0.3592   0.13315   0.12290  -0.0170  1.0000  0.3313  -1.1756   0.0000   0.0000   0.0000   0.1967
  -9.000  -0.3524   0.12772   0.11761  -0.0157  1.0000  0.3572  -1.1600   0.0000   0.0000   0.0000   0.1996
  -8.500  -0.3420   0.12142   0.11148  -0.0140  1.0000  0.3868  -1.1619   0.0000   0.0000   0.0000   0.2033
  -8.000  -0.3351   0.11584   0.10606  -0.0116  1.0000  0.4230  -1.1656   0.0000   0.0000   0.0000   0.2099
  -7.500  -0.3267   0.10994   0.10033  -0.0084  1.0000  0.4679  -1.1636   0.0000   0.0000   0.0000   0.2190
  -7.000  -0.3080   0.10251   0.09304  -0.0048  1.0000  0.5300  -1.1451   0.0000   0.0000   0.0000   0.2290
  -6.500  -0.0578   0.06819   0.05774  -0.0343  1.0000  1.0000  -0.9094   0.0000   0.0000   0.0000  -0.3756
  -6.000  -0.0426   0.06381   0.05348  -0.0348  1.0000  1.0000  -0.9047   0.0000   0.0000   0.0000  -0.6066
  -5.500  -0.0281   0.05965   0.04946  -0.0350  1.0000  1.0000  -0.8992   0.0000   0.0000   0.0000  -1.0532
  -5.000  -0.0144   0.05570   0.04560  -0.0351  1.0000  1.0000  -0.9050   0.0000   0.0000   0.0000  -2.2826
  -4.500  -0.0571   0.05617   0.04648  -0.0214  1.0000  0.9681  -0.9452   0.0000   0.0000   0.0000  -0.1454
  -4.000  -0.1417   0.05935   0.05034  -0.0006  1.0000  0.8879  -1.0035   0.0000   0.0000   0.0000   0.2391
  -3.500  -0.2225   0.06162   0.05322   0.0154  1.0000  0.8095  -1.0835   0.0000   0.0000   0.0000   0.3157
  -2.500  -0.1421   0.05358   0.04451  -0.0557  1.0000  0.3036  -1.4028   0.0000   0.0000   0.0000  -0.1458
  -2.000  -0.0341   0.04506   0.03497  -0.0746  1.0000  0.2949  -1.4360   0.0000   0.0000   0.0000  -1.9501
  -1.500   0.0677   0.03875   0.02752  -0.0872  1.0000  0.3235  -1.3908   0.0000   0.0000   0.0000   1.5448
  -1.000   0.1505   0.03488   0.02276  -0.0932  1.0000  0.4029  -1.2349   0.0000   0.0000   0.0000   0.8714
  -0.500   0.2156   0.03162   0.01973  -0.0937  1.0000  0.5741  -1.0791   0.0000   0.0000   0.0000   0.6855
   0.000   0.2678   0.02913   0.01689  -0.0939  1.0000  1.0000  -0.9697   0.0000   0.0000   0.0000   0.6002
   0.500   0.3172   0.03060   0.01722  -0.0947  1.0000  1.0000  -0.7284   0.0000   0.0000   0.0000   0.5478
   1.000   0.3612   0.03234   0.01832  -0.0952  1.0000  1.0000  -0.5231   0.0000   0.0000   0.0000   0.5122
   1.500   0.4020   0.03439   0.01993  -0.0957  1.0000  1.0000  -0.5538   0.0000   0.0000   0.0000   0.4861
   2.000   0.4399   0.03678   0.02206  -0.0962  1.0000  1.0000  -0.5846   0.0000   0.0000   0.0000   0.4663
   2.500   0.4752   0.03953   0.02466  -0.0969  1.0000  1.0000  -0.6158   0.0000   0.0000   0.0000   0.4511
   3.000   0.5081   0.04264   0.02771  -0.0978  1.0000  1.0000  -0.6485   0.0000   0.0000   0.0000   0.4391
   3.500   0.5388   0.04611   0.03119  -0.0988  1.0000  1.0000  -0.6818   0.0000   0.0000   0.0000   0.4296
   4.000   0.5674   0.04995   0.03510  -0.1000  1.0000  1.0000  -0.7190   0.0000   0.0000   0.0000   0.4219
   4.500   0.5941   0.05416   0.03947  -0.1013  1.0000  1.0000  -0.7580   0.0000   0.0000   0.0000   0.4158
   5.000   0.6188   0.05876   0.04424  -0.1028  1.0000  1.0000  -0.7975   0.0000   0.0000   0.0000   0.4109
   5.500   0.7033   0.06578   0.05169  -0.1158  0.9480  1.0000  -0.9073   0.0000   0.0000   0.0000   0.4089
   6.000   0.7775   0.07186   0.05830  -0.1247  0.8882  1.0000  -1.0494   0.0000   0.0000   0.0000   0.4042
   6.500   0.8327   0.07744   0.06442  -0.1291  0.8302  1.0000  -1.1776   0.0000   0.0000   0.0000   0.3985
   7.000   0.8904   0.08301   0.07055  -0.1324  0.7671  1.0000  -1.4099   0.0000   0.0000   0.0000   0.3917
   7.500   0.9394   0.08848   0.07658  -0.1332  0.7022  1.0000  -1.6305   0.0000   0.0000   0.0000   0.3843
   8.000   0.9948   0.09340   0.08226  -0.1321  0.6287  1.0000  -1.8964   0.0000   0.0000   0.0000   0.3749
   8.500   1.0269   0.09904   0.08842  -0.1288  0.5627  1.0000  -2.1002   0.0000   0.0000   0.0000   0.3672
   9.000   1.0418   0.10599   0.09575  -0.1255  0.5063  1.0000  -2.2205   0.0000   0.0000   0.0000   0.3617
   9.500   1.0570   0.11335   0.10345  -0.1222  0.4526  1.0000  -2.3225   0.0000   0.0000   0.0000   0.3563
  10.000   1.0583   0.12233   0.11263  -0.1207  0.4131  1.0000  -2.3420   0.0000   0.0000   0.0000   0.3542
  10.500   1.0522   0.13251   0.12290  -0.1211  0.3866  1.0000  -2.3060   0.0000   0.0000   0.0000   0.3548
  11.000   1.0427   0.14381   0.13424  -0.1238  0.3756  1.0000  -2.2284   0.0000   0.0000   0.0000   0.3580
  11.500   1.0406   0.15607   0.14659  -0.1282  0.3785  1.0000  -2.1457   0.0000   0.0000   0.0000   0.3620
  12.500   0.9899   0.18067   0.17109  -0.1496  0.5439  1.0000  -1.7920   0.0000   0.0000   0.0000   0.3887
  13.000   1.0075   0.18917   0.17970  -0.1508  0.5071  1.0000  -1.8011   0.0000   0.0000   0.0000   0.3867
  13.500   1.0226   0.19768   0.18828  -0.1530  0.4854  1.0000  -1.7946   0.0000   0.0000   0.0000   0.3860
  14.000   1.0395   0.20548   0.19614  -0.1544  0.4520  1.0000  -1.7938   0.0000   0.0000   0.0000   0.3843
  14.500   1.0560   0.21356   0.20443  -0.1567  0.4304  1.0000  -1.7851   0.0000   0.0000   0.0000   0.3835
  15.000   1.0731   0.22146   0.21238  -0.1591  0.4088  1.0000  -1.7783   0.0000   0.0000   0.0000   0.3827
  15.500   1.0890   0.22831   0.21927  -0.1614  0.3830  1.0000  -1.7774   0.0000   0.0000   0.0000   0.3818
  16.000   1.1072   0.23638   0.22737  -0.1641  0.3651  1.0000  -1.8097   0.0000   0.0000   0.0000   0.3812
  16.500   1.1241   0.24371   0.23474  -0.1672  0.3484  1.0000  -1.8342   0.0000   0.0000   0.0000   0.3809
  17.000   1.1438   0.25244   0.24351  -0.1703  0.3341  1.0000  -1.8612   0.0000   0.0000   0.0000   0.3802
  17.500   1.1564   0.25771   0.24879  -0.1740  0.3193  1.0000  -1.8634   0.0000   0.0000   0.0000   0.3810
  18.000   1.1808   0.26843   0.25958  -0.1765  0.3023  1.0000  -1.8998   0.0000   0.0000   0.0000   0.3792
  18.500   1.1908   0.27161   0.26276  -0.1808  0.2860  1.0000  -1.8864   0.0000   0.0000   0.0000   0.3806
  19.000   1.2144   0.28227   0.27346  -0.1834  0.2697  1.0000  -1.9322   0.0000   0.0000   0.0000   0.3789
  19.500   1.2285   0.28767   0.27888  -0.1877  0.2582  1.0000  -1.9599   0.0000   0.0000   0.0000   0.3797
  20.000   1.2438   0.29362   0.28498  -0.1920  0.2468  1.0000  -1.9876   0.0000   0.0000   0.0000   0.3803


