xflr5 v6.61

 Calculated polar for: BLD_100

 1 1 Reynolds number fixed          Mach number fixed         

 xtrf =   1.000 (top)        1.000 (bottom)
 Mach =   0.200     Re =     0.100 e 6     Ncrit =   9.000

  alpha     CL        CD       CDp       Cm    Top Xtr Bot Xtr   Cpmin    Chinge    XCp    
 ------- -------- --------- --------- -------- ------- ------- -------- --------- ---------
 -19.000  -0.6599   0.23821   0.23257   0.0332  1.0000  0.0265  -1.5450   0.0000   0.0000   0.0000   0.2902
 -18.500  -0.6415   0.23168   0.22604   0.0296  1.0000  0.0277  -1.4838   0.0000   0.0000   0.0000   0.2865
 -18.000  -0.6233   0.22544   0.21978   0.0258  1.0000  0.0291  -1.4771   0.0000   0.0000   0.0000   0.2821
 -17.500  -0.6051   0.21929   0.21364   0.0218  1.0000  0.0307  -1.4846   0.0000   0.0000   0.0000   0.2772
 -17.000  -0.5876   0.21402   0.20838   0.0173  1.0000  0.0322  -1.5277   0.0000   0.0000   0.0000   0.2710
 -16.500  -0.5750   0.21162   0.20601   0.0118  1.0000  0.0327  -1.6270   0.0000   0.0000   0.0000   0.2624
 -16.000  -0.5546   0.20152   0.19594   0.0095  1.0000  0.0336  -1.5695   0.0000   0.0000   0.0000   0.2593
 -15.500  -0.5356   0.19377   0.18816   0.0074  1.0000  0.0357  -1.4754   0.0000   0.0000   0.0000   0.2563
 -15.000  -0.5188   0.18742   0.18183   0.0043  1.0000  0.0379  -1.4496   0.0000   0.0000   0.0000   0.2509
 -14.500  -0.5029   0.18148   0.17591   0.0007  1.0000  0.0402  -1.4564   0.0000   0.0000   0.0000   0.2443
 -14.000  -0.4935   0.17836   0.17283  -0.0045  1.0000  0.0414  -1.5435   0.0000   0.0000   0.0000   0.2343
 -13.500  -0.4920   0.17668   0.17122  -0.0097  1.0000  0.0417  -1.6703   0.0000   0.0000   0.0000   0.2241
 -13.000  -0.4583   0.16161   0.15611  -0.0081  1.0000  0.0442  -1.4716   0.0000   0.0000   0.0000   0.2259
 -12.500  -0.4435   0.15510   0.14962  -0.0105  1.0000  0.0469  -1.4629   0.0000   0.0000   0.0000   0.2202
 -12.000  -0.4314   0.14922   0.14378  -0.0137  1.0000  0.0499  -1.5021   0.0000   0.0000   0.0000   0.2124
 -11.500  -0.4316   0.14683   0.14147  -0.0193  1.0000  0.0513  -1.6580   0.0000   0.0000   0.0000   0.1997
 -11.000  -0.4072   0.13584   0.13050  -0.0185  1.0000  0.0541  -1.5252   0.0000   0.0000   0.0000   0.1991
 -10.500  -0.3943   0.12947   0.12416  -0.0204  1.0000  0.0580  -1.5050   0.0000   0.0000   0.0000   0.1929
 -10.000  -0.3905   0.12509   0.11985  -0.0248  1.0000  0.0613  -1.5986   0.0000   0.0000   0.0000   0.1815
  -9.750  -0.3946   0.12406   0.11890  -0.0281  1.0000  0.0617  -1.6917   0.0000   0.0000   0.0000   0.1741
  -9.500  -0.3985   0.12272   0.11764  -0.0313  1.0000  0.0619  -1.7819   0.0000   0.0000   0.0000   0.1671
  -9.250  -0.3708   0.11385   0.10870  -0.0264  1.0000  0.0645  -1.5482   0.0000   0.0000   0.0000   0.1740
  -9.000  -0.3644   0.11069   0.10556  -0.0269  1.0000  0.0666  -1.5200   0.0000   0.0000   0.0000   0.1716
  -8.750  -0.3602   0.10784   0.10275  -0.0278  1.0000  0.0689  -1.5182   0.0000   0.0000   0.0000   0.1683
  -8.500  -0.3600   0.10559   0.10057  -0.0296  1.0000  0.0712  -1.5557   0.0000   0.0000   0.0000   0.1636
  -8.250  -0.3679   0.10458   0.09967  -0.0322  1.0000  0.0722  -1.6490   0.0000   0.0000   0.0000   0.1586
  -8.000  -0.2957   0.09454   0.08991  -0.0317  1.0000  0.0784  -1.3678   0.0000   0.0000   0.0000   0.1398
  -7.750  -0.3569   0.09696   0.09214  -0.0307  1.0000  0.0747  -1.5976   0.0000   0.0000   0.0000   0.1603
  -7.500  -0.3126   0.09092   0.08647  -0.0314  1.0000  0.0827  -1.4640   0.0000   0.0000   0.0000   0.1472
  -7.250  -0.3577   0.09222   0.08753  -0.0286  1.0000  0.0798  -1.5868   0.0000   0.0000   0.0000   0.1667
  -7.000  -0.3470   0.08906   0.08486  -0.0303  1.0000  0.0834  -1.6122   0.0000   0.0000   0.0000   0.1608
  -6.750  -0.3760   0.08945   0.08498  -0.0332  1.0000  0.0832  -1.7560   0.0000   0.0000   0.0000   0.1590
  -6.250  -0.3706   0.08286   0.07848  -0.0274  1.0000  0.0879  -1.6591   0.0000   0.0000   0.0000   0.1737
  -6.000  -0.3708   0.08049   0.07616  -0.0280  1.0000  0.0915  -1.6728   0.0000   0.0000   0.0000   0.1723
  -5.500  -0.3657   0.07452   0.07025  -0.0322  1.0000  0.0966  -1.7389   0.0000   0.0000   0.0000   0.1601
  -5.250  -0.3611   0.07189   0.06765  -0.0307  1.0000  0.0999  -1.6970   0.0000   0.0000   0.0000   0.1632
  -5.000  -0.3431   0.06811   0.06374  -0.0403  1.0000  0.1065  -1.8034   0.0000   0.0000   0.0000   0.1308
  -4.750  -0.3404   0.06527   0.06099  -0.0360  1.0000  0.1088  -1.7161   0.0000   0.0000   0.0000   0.1424
  -4.500  -0.3170   0.06158   0.05712  -0.0434  1.0000  0.1178  -1.7629   0.0000   0.0000   0.0000   0.1113
  -4.250  -0.3113   0.05881   0.05443  -0.0402  1.0000  0.1208  -1.6747   0.0000   0.0000   0.0000   0.1193
  -4.000  -0.2906   0.05541   0.05092  -0.0438  1.0000  0.1308  -1.6543   0.0000   0.0000   0.0000   0.0976
  -3.750  -0.2714   0.05244   0.04785  -0.0457  1.0000  0.1424  -1.6029   0.0000   0.0000   0.0000   0.0797
  -3.500  -0.2503   0.04949   0.04482  -0.0477  1.0000  0.1542  -1.5524   0.0000   0.0000   0.0000   0.0576
  -2.750  -0.0982   0.03060   0.02371  -0.0688  0.9984  0.0853  -1.9656   0.0000   0.0000   0.0000  -0.4563
  -2.500  -0.0447   0.02681   0.01910  -0.0737  0.9951  0.0812  -1.9515   0.0000   0.0000   0.0000  -1.4104
  -2.250   0.0045   0.02456   0.01634  -0.0779  0.9901  0.0878  -1.8183   0.0000   0.0000   0.0000  17.7690
  -2.000   0.0539   0.02277   0.01400  -0.0818  0.9851  0.0964  -1.7083   0.0000   0.0000   0.0000   1.7751
  -1.750   0.1015   0.02154   0.01263  -0.0855  0.9790  0.1113  -1.5488   0.0000   0.0000   0.0000   1.0973
  -1.500   0.1466   0.02060   0.01164  -0.0889  0.9717  0.1358  -1.3748   0.0000   0.0000   0.0000   0.8590
  -1.250   0.1943   0.01975   0.01094  -0.0928  0.9654  0.1809  -1.2058   0.0000   0.0000   0.0000   0.7293
  -1.000   0.2382   0.01891   0.01045  -0.0961  0.9572  0.2649  -1.0351   0.0000   0.0000   0.0000   0.6544
  -0.750   0.2749   0.01667   0.01017  -0.0975  0.9519  0.7483  -0.8854   0.0000   0.0000   0.0000   0.6052
  -0.500   0.3148   0.01650   0.00977  -0.0992  0.9394  1.0000  -0.7306   0.0000   0.0000   0.0000   0.5655
  -0.250   0.3573   0.01660   0.00957  -0.1020  0.9286  1.0000  -0.5750   0.0000   0.0000   0.0000   0.5353
   0.000   0.3994   0.01665   0.00941  -0.1046  0.9178  1.0000  -0.5569   0.0000   0.0000   0.0000   0.5115
   0.250   0.4420   0.01663   0.00924  -0.1072  0.9075  1.0000  -0.5838   0.0000   0.0000   0.0000   0.4919
   0.500   0.4823   0.01657   0.00907  -0.1092  0.8968  1.0000  -0.6103   0.0000   0.0000   0.0000   0.4756
   0.750   0.5200   0.01649   0.00890  -0.1106  0.8855  1.0000  -0.6363   0.0000   0.0000   0.0000   0.4616
   1.000   0.5555   0.01641   0.00875  -0.1115  0.8735  1.0000  -0.6618   0.0000   0.0000   0.0000   0.4495
   1.250   0.5897   0.01631   0.00861  -0.1121  0.8613  1.0000  -0.6873   0.0000   0.0000   0.0000   0.4386
   1.500   0.6228   0.01622   0.00849  -0.1124  0.8488  1.0000  -0.7131   0.0000   0.0000   0.0000   0.4288
   1.750   0.6550   0.01613   0.00838  -0.1125  0.8362  1.0000  -0.7393   0.0000   0.0000   0.0000   0.4199
   2.000   0.6865   0.01605   0.00828  -0.1124  0.8236  1.0000  -0.7662   0.0000   0.0000   0.0000   0.4117
   2.250   0.7174   0.01599   0.00823  -0.1122  0.8109  1.0000  -0.7939   0.0000   0.0000   0.0000   0.4041
   2.500   0.7463   0.01603   0.00827  -0.1117  0.7971  1.0000  -0.8213   0.0000   0.0000   0.0000   0.3972
   2.750   0.7737   0.01614   0.00841  -0.1110  0.7824  1.0000  -0.8494   0.0000   0.0000   0.0000   0.3908
   3.000   0.8022   0.01624   0.00852  -0.1104  0.7686  1.0000  -0.9327   0.0000   0.0000   0.0000   0.3848
   3.250   0.8308   0.01634   0.00867  -0.1099  0.7554  1.0000  -1.0571   0.0000   0.0000   0.0000   0.3792
   3.500   0.8594   0.01647   0.00882  -0.1093  0.7424  1.0000  -1.1953   0.0000   0.0000   0.0000   0.3740
   3.750   0.8852   0.01677   0.00920  -0.1086  0.7273  1.0000  -1.3433   0.0000   0.0000   0.0000   0.3692
   4.000   0.9123   0.01703   0.00955  -0.1079  0.7133  1.0000  -1.5029   0.0000   0.0000   0.0000   0.3645
   4.250   0.9397   0.01726   0.00986  -0.1072  0.6996  1.0000  -1.6847   0.0000   0.0000   0.0000   0.3601
   4.500   0.9676   0.01749   0.01017  -0.1065  0.6862  1.0000  -1.8943   0.0000   0.0000   0.0000   0.3559
   4.750   0.9928   0.01785   0.01069  -0.1055  0.6703  1.0000  -2.0998   0.0000   0.0000   0.0000   0.3519
   5.000   1.0182   0.01778   0.01067  -0.1038  0.6470  1.0000  -2.3186   0.0000   0.0000   0.0000   0.3472
   5.250   1.0406   0.01733   0.01012  -0.1007  0.6089  1.0000  -2.5400   0.0000   0.0000   0.0000   0.3417
   5.500   1.0621   0.01722   0.01000  -0.0981  0.5717  1.0000  -2.7765   0.0000   0.0000   0.0000   0.3370
   5.750   1.0822   0.01730   0.01013  -0.0956  0.5320  1.0000  -3.0086   0.0000   0.0000   0.0000   0.3327
   6.000   1.0991   0.01747   0.01027  -0.0924  0.4740  1.0000  -3.2196   0.0000   0.0000   0.0000   0.3281
   6.250   1.0986   0.01886   0.01068  -0.0867  0.2707  1.0000  -3.3151   0.0000   0.0000   0.0000   0.3226
   6.500   1.0907   0.02270   0.01308  -0.0818  0.1136  1.0000  -3.3323   0.0000   0.0000   0.0000   0.3184
   6.750   1.0988   0.02479   0.01503  -0.0785  0.0907  1.0000  -3.4203   0.0000   0.0000   0.0000   0.3146
   7.000   1.1092   0.02663   0.01684  -0.0756  0.0783  1.0000  -3.5513   0.0000   0.0000   0.0000   0.3110
   7.250   1.1232   0.02855   0.01873  -0.0730  0.0704  1.0000  -3.6929   0.0000   0.0000   0.0000   0.3076
   7.500   1.1439   0.03085   0.02090  -0.0715  0.0641  1.0000  -3.8605   0.0000   0.0000   0.0000   0.3048
   7.750   1.1691   0.03294   0.02308  -0.0705  0.0582  1.0000  -4.0375   0.0000   0.0000   0.0000   0.3023
   8.000   1.2013   0.03629   0.02645  -0.0705  0.0549  1.0000  -4.2039   0.0000   0.0000   0.0000   0.3004
   8.250   1.2241   0.03870   0.02933  -0.0690  0.0518  1.0000  -4.3181   0.0000   0.0000   0.0000   0.2978
   8.500   1.2462   0.04182   0.03282  -0.0675  0.0502  1.0000  -4.4129   0.0000   0.0000   0.0000   0.2953
   8.750   1.2640   0.04543   0.03690  -0.0655  0.0502  1.0000  -4.4832   0.0000   0.0000   0.0000   0.2927
   9.000   1.2758   0.04935   0.04134  -0.0630  0.0509  1.0000  -4.5276   0.0000   0.0000   0.0000   0.2900
   9.250   1.2822   0.05329   0.04577  -0.0602  0.0513  1.0000  -4.5577   0.0000   0.0000   0.0000   0.2873
   9.500   1.2834   0.05722   0.05014  -0.0572  0.0515  1.0000  -4.5716   0.0000   0.0000   0.0000   0.2847
   9.750   1.2793   0.06123   0.05457  -0.0541  0.0520  1.0000  -4.5627   0.0000   0.0000   0.0000   0.2821
  10.000   1.2718   0.06538   0.05906  -0.0510  0.0529  1.0000  -4.5423   0.0000   0.0000   0.0000   0.2797
  10.250   1.2638   0.06976   0.06369  -0.0484  0.0540  1.0000  -4.5290   0.0000   0.0000   0.0000   0.2776
  10.500   1.2580   0.07398   0.06817  -0.0458  0.0569  1.0000  -4.5006   0.0000   0.0000   0.0000   0.2755
  10.750   1.2185   0.07759   0.07220  -0.0421  0.0586  1.0000  -4.3135   0.0000   0.0000   0.0000   0.2734
  11.000   1.1880   0.08263   0.07751  -0.0414  0.0601  1.0000  -4.1779   0.0000   0.0000   0.0000   0.2734
  11.250   1.1624   0.08836   0.08344  -0.0425  0.0616  1.0000  -4.0665   0.0000   0.0000   0.0000   0.2748
  11.500   1.1417   0.09453   0.08974  -0.0444  0.0631  1.0000  -3.9773   0.0000   0.0000   0.0000   0.2768


