xflr5 v6.61

 Calculated polar for: BLD_25

 1 1 Reynolds number fixed          Mach number fixed         

 xtrf =   1.000 (top)        1.000 (bottom)
 Mach =   0.200     Re =     0.050 e 6     Ncrit =   7.000

  alpha     CL        CD       CDp       Cm    Top Xtr Bot Xtr   Cpmin    Chinge    XCp    
 ------- -------- --------- --------- -------- ------- ------- -------- --------- ---------
 -27.000  -0.8315   0.32657   0.31821   0.0642  1.0000  0.0287  -1.6700   0.0000   0.0000   0.0000   0.3073
 -26.500  -0.8160   0.31728   0.30886   0.0608  1.0000  0.0295  -1.6085   0.0000   0.0000   0.0000   0.3054
 -26.000  -0.8008   0.31140   0.30295   0.0568  1.0000  0.0305  -1.5771   0.0000   0.0000   0.0000   0.3025
 -25.500  -0.7854   0.30601   0.29754   0.0526  1.0000  0.0316  -1.5542   0.0000   0.0000   0.0000   0.2993
 -25.000  -0.7697   0.30073   0.29225   0.0485  1.0000  0.0330  -1.5338   0.0000   0.0000   0.0000   0.2960
 -24.500  -0.7539   0.29558   0.28708   0.0443  1.0000  0.0347  -1.5172   0.0000   0.0000   0.0000   0.2924
 -24.000  -0.7379   0.29071   0.28218   0.0400  1.0000  0.0361  -1.5082   0.0000   0.0000   0.0000   0.2885
 -23.500  -0.7222   0.28668   0.27815   0.0356  1.0000  0.0369  -1.5093   0.0000   0.0000   0.0000   0.2841
 -23.000  -0.7073   0.28383   0.27530   0.0309  1.0000  0.0373  -1.5198   0.0000   0.0000   0.0000   0.2792
 -22.500  -0.6927   0.28014   0.27166   0.0266  1.0000  0.0375  -1.5175   0.0000   0.0000   0.0000   0.2745
 -22.000  -0.6740   0.26916   0.26065   0.0245  1.0000  0.0388  -1.4380   0.0000   0.0000   0.0000   0.2728
 -21.500  -0.6576   0.26316   0.25465   0.0213  1.0000  0.0403  -1.4165   0.0000   0.0000   0.0000   0.2693
 -21.000  -0.6413   0.25766   0.24911   0.0179  1.0000  0.0420  -1.4087   0.0000   0.0000   0.0000   0.2653
 -20.500  -0.6252   0.25241   0.24388   0.0144  1.0000  0.0438  -1.4097   0.0000   0.0000   0.0000   0.2609
 -20.000  -0.6096   0.24803   0.23952   0.0107  1.0000  0.0452  -1.4268   0.0000   0.0000   0.0000   0.2558
 -19.500  -0.5968   0.24617   0.23769   0.0063  1.0000  0.0460  -1.4738   0.0000   0.0000   0.0000   0.2494
 -19.000  -0.5786   0.23697   0.22852   0.0043  1.0000  0.0471  -1.4201   0.0000   0.0000   0.0000   0.2464
 -18.500  -0.5615   0.23011   0.22167   0.0021  1.0000  0.0495  -1.3640   0.0000   0.0000   0.0000   0.2430
 -18.000  -0.5458   0.22454   0.21608  -0.0007  1.0000  0.0519  -1.3379   0.0000   0.0000   0.0000   0.2385
 -17.500  -0.5309   0.21953   0.21110  -0.0036  1.0000  0.0542  -1.3279   0.0000   0.0000   0.0000   0.2333
 -17.000  -0.5186   0.21623   0.20785  -0.0071  1.0000  0.0555  -1.3468   0.0000   0.0000   0.0000   0.2268
 -16.500  -0.5071   0.21229   0.20400  -0.0102  1.0000  0.0561  -1.3620   0.0000   0.0000   0.0000   0.2208
 -16.000  -0.4866   0.20231   0.19402  -0.0108  1.0000  0.0586  -1.2919   0.0000   0.0000   0.0000   0.2187
 -15.500  -0.4718   0.19652   0.18827  -0.0127  1.0000  0.0615  -1.2875   0.0000   0.0000   0.0000   0.2142
 -15.000  -0.4592   0.19163   0.18343  -0.0151  1.0000  0.0644  -1.3116   0.0000   0.0000   0.0000   0.2085
 -14.500  -0.4517   0.18887   0.18074  -0.0182  1.0000  0.0657  -1.3780   0.0000   0.0000   0.0000   0.2015
 -14.000  -0.4339   0.18019   0.17207  -0.0189  1.0000  0.0676  -1.3365   0.0000   0.0000   0.0000   0.1983
 -13.500  -0.4197   0.17401   0.16593  -0.0200  1.0000  0.0712  -1.3145   0.0000   0.0000   0.0000   0.1943
 -13.000  -0.4116   0.17002   0.16201  -0.0223  1.0000  0.0749  -1.3501   0.0000   0.0000   0.0000   0.1883
 -12.500  -0.4006   0.16385   0.15594  -0.0236  1.0000  0.0771  -1.3516   0.0000   0.0000   0.0000   0.1839
 -12.000  -0.3864   0.15728   0.14942  -0.0239  1.0000  0.0823  -1.3093   0.0000   0.0000   0.0000   0.1809
 -11.500  -0.3836   0.15403   0.14627  -0.0261  1.0000  0.0860  -1.3578   0.0000   0.0000   0.0000   0.1753
 -11.000  -0.3696   0.14655   0.13888  -0.0261  1.0000  0.0888  -1.3188   0.0000   0.0000   0.0000   0.1726
 -10.500  -0.3597   0.14094   0.13334  -0.0265  1.0000  0.0940  -1.2962   0.0000   0.0000   0.0000   0.1699
 -10.000  -0.3644   0.13866   0.13122  -0.0284  1.0000  0.0970  -1.3651   0.0000   0.0000   0.0000   0.1661
  -9.500  -0.3454   0.13007   0.12264  -0.0271  1.0000  0.1017  -1.2783   0.0000   0.0000   0.0000   0.1656
  -9.000  -0.3470   0.12655   0.11927  -0.0278  1.0000  0.1070  -1.3090   0.0000   0.0000   0.0000   0.1645
  -8.500  -0.3377   0.12009   0.11293  -0.0268  1.0000  0.1109  -1.3066   0.0000   0.0000   0.0000   0.1653
  -8.000  -0.3394   0.11616   0.10916  -0.0262  1.0000  0.1173  -1.3415   0.0000   0.0000   0.0000   0.1681
  -7.500  -0.3386   0.11101   0.10419  -0.0246  1.0000  0.1211  -1.3616   0.0000   0.0000   0.0000   0.1729
  -7.000  -0.3455   0.10736   0.10072  -0.0222  1.0000  0.1279  -1.3891   0.0000   0.0000   0.0000   0.1818
  -6.500  -0.3507   0.10282   0.09638  -0.0199  1.0000  0.1321  -1.4139   0.0000   0.0000   0.0000   0.1899
  -6.000  -0.3568   0.09938   0.09315  -0.0214  1.0000  0.1400  -1.4707   0.0000   0.0000   0.0000   0.1871
  -5.500  -0.3510   0.09400   0.08792  -0.0214  1.0000  0.1507  -1.4727   0.0000   0.0000   0.0000   0.1863
  -4.500  -0.3286   0.08250   0.07667  -0.0215  1.0000  0.1779  -1.4409   0.0000   0.0000   0.0000   0.1822
  -4.000  -0.3025   0.07648   0.07065  -0.0288  1.0000  0.1961  -1.4507   0.0000   0.0000   0.0000   0.1522
  -3.000  -0.1190   0.05113   0.04428  -0.0742  1.0000  0.0961  -1.8016   0.0000   0.0000   0.0000  -0.3795
  -2.500   0.0013   0.03951   0.03153  -0.0951  1.0000  0.0828  -1.8600   0.0000   0.0000   0.0000  71.1652
  -2.000   0.1083   0.03244   0.02304  -0.1082  1.0000  0.0907  -1.8371   0.0000   0.0000   0.0000   1.2549
  -1.500   0.1808   0.03000   0.01997  -0.1129  1.0000  0.1343  -1.6728   0.0000   0.0000   0.0000   0.8770
  -1.000   0.2518   0.02814   0.01756  -0.1162  1.0000  0.1839  -1.4629   0.0000   0.0000   0.0000   0.7124
  -0.500   0.3141   0.02746   0.01698  -0.1182  1.0000  0.2801  -1.1629   0.0000   0.0000   0.0000   0.6266
   0.000   0.3850   0.02601   0.01705  -0.1214  1.0000  0.6338  -0.8745   0.0000   0.0000   0.0000   0.5650
   0.500   0.4225   0.02681   0.01767  -0.1196  0.9919  1.0000  -0.6599   0.0000   0.0000   0.0000   0.5321
   1.000   0.5145   0.02832   0.01855  -0.1280  0.9653  1.0000  -0.6185   0.0000   0.0000   0.0000   0.4971
   1.500   0.6008   0.02932   0.01922  -0.1346  0.9362  1.0000  -0.6953   0.0000   0.0000   0.0000   0.4720
   2.000   0.6835   0.02991   0.01966  -0.1399  0.9052  1.0000  -0.7803   0.0000   0.0000   0.0000   0.4521
   2.500   0.7624   0.03012   0.01985  -0.1436  0.8725  1.0000  -0.8794   0.0000   0.0000   0.0000   0.4353
   3.000   0.8408   0.02987   0.01971  -0.1462  0.8389  1.0000  -0.9936   0.0000   0.0000   0.0000   0.4204
   3.500   0.9207   0.02897   0.01901  -0.1479  0.8050  1.0000  -1.1292   0.0000   0.0000   0.0000   0.4067
   4.000   1.0013   0.02781   0.01809  -0.1490  0.7675  1.0000  -1.2969   0.0000   0.0000   0.0000   0.3943
   4.500   1.0775   0.02668   0.01724  -0.1488  0.7220  1.0000  -1.5121   0.0000   0.0000   0.0000   0.3830
   5.000   1.1483   0.02598   0.01669  -0.1476  0.6658  1.0000  -1.7826   0.0000   0.0000   0.0000   0.3729
   5.500   1.2083   0.02609   0.01691  -0.1449  0.5988  1.0000  -2.1215   0.0000   0.0000   0.0000   0.3637
   6.000   1.2572   0.02700   0.01775  -0.1411  0.5260  1.0000  -2.4562   0.0000   0.0000   0.0000   0.3553
   6.500   1.2985   0.02849   0.01912  -0.1365  0.4516  1.0000  -2.8118   0.0000   0.0000   0.0000   0.3476
   7.000   1.3330   0.03047   0.02094  -0.1313  0.3786  1.0000  -3.1481   0.0000   0.0000   0.0000   0.3402
   7.500   1.3622   0.03295   0.02345  -0.1257  0.3101  1.0000  -3.4625   0.0000   0.0000   0.0000   0.3334
   8.000   1.3839   0.03582   0.02615  -0.1196  0.2478  1.0000  -3.7470   0.0000   0.0000   0.0000   0.3267
   8.500   1.4020   0.03931   0.02955  -0.1134  0.1938  1.0000  -3.9951   0.0000   0.0000   0.0000   0.3205
   9.000   1.4039   0.04292   0.03315  -0.1057  0.1491  1.0000  -4.1761   0.0000   0.0000   0.0000   0.3142
   9.500   1.4080   0.04735   0.03770  -0.0989  0.1154  1.0000  -4.3476   0.0000   0.0000   0.0000   0.3085
  10.000   1.4253   0.05302   0.04364  -0.0938  0.0927  1.0000  -4.5362   0.0000   0.0000   0.0000   0.3034
  10.500   1.4441   0.05977   0.05099  -0.0895  0.0808  1.0000  -4.6950   0.0000   0.0000   0.0000   0.2988
  11.000   1.4437   0.06750   0.05937  -0.0844  0.0759  1.0000  -4.7641   0.0000   0.0000   0.0000   0.2946
  11.500   1.4147   0.07634   0.06898  -0.0795  0.0741  1.0000  -4.7027   0.0000   0.0000   0.0000   0.2917
  12.000   1.3729   0.08685   0.08012  -0.0778  0.0737  1.0000  -4.5798   0.0000   0.0000   0.0000   0.2915
  12.500   1.3207   0.10033   0.09411  -0.0814  0.0744  1.0000  -4.3732   0.0000   0.0000   0.0000   0.2957
  13.000   1.2652   0.11789   0.11189  -0.0914  0.0760  1.0000  -4.0701   0.0000   0.0000   0.0000   0.3057
  13.500   1.2202   0.13821   0.13232  -0.1047  0.0774  1.0000  -3.7016   0.0000   0.0000   0.0000   0.3190
  15.000   0.9035   0.17877   0.17297  -0.1067  0.0949  1.0000  -1.9675   0.0000   0.0000   0.0000   0.3523
  15.500   0.8980   0.18761   0.18184  -0.1095  0.0972  1.0000  -1.8632   0.0000   0.0000   0.0000   0.3558


