xflr5 v6.61

 Calculated polar for: BLD_0

 1 1 Reynolds number fixed          Mach number fixed         

 xtrf =   1.000 (top)        1.000 (bottom)
 Mach =   0.200     Re =     0.025 e 6     Ncrit =   7.000

  alpha     CL        CD       CDp       Cm    Top Xtr Bot Xtr   Cpmin    Chinge    XCp    
 ------- -------- --------- --------- -------- ------- ------- -------- --------- ---------
 -23.000  -0.6919   0.28486   0.27288   0.0258  1.0000  0.0782  -1.3942   0.0000   0.0000   0.0000   0.2728
 -22.500  -0.6763   0.27909   0.26711   0.0227  1.0000  0.0813  -1.3781   0.0000   0.0000   0.0000   0.2695
 -22.000  -0.6617   0.27470   0.26272   0.0192  1.0000  0.0843  -1.3766   0.0000   0.0000   0.0000   0.2655
 -21.500  -0.6489   0.27238   0.26043   0.0154  1.0000  0.0861  -1.3923   0.0000   0.0000   0.0000   0.2608
 -21.000  -0.6324   0.26493   0.25302   0.0127  1.0000  0.0880  -1.3674   0.0000   0.0000   0.0000   0.2575
 -20.500  -0.6159   0.25831   0.24635   0.0101  1.0000  0.0917  -1.3353   0.0000   0.0000   0.0000   0.2543
 -20.000  -0.6017   0.25401   0.24207   0.0070  1.0000  0.0953  -1.3259   0.0000   0.0000   0.0000   0.2499
 -19.500  -0.5907   0.25252   0.24063   0.0034  1.0000  0.0971  -1.3403   0.0000   0.0000   0.0000   0.2446
 -19.000  -0.5711   0.24258   0.23073   0.0017  1.0000  0.1014  -1.2781   0.0000   0.0000   0.0000   0.2421
 -18.500  -0.5575   0.23842   0.22660  -0.0011  1.0000  0.1062  -1.2619   0.0000   0.0000   0.0000   0.2376
 -18.000  -0.5444   0.23389   0.22215  -0.0038  1.0000  0.1088  -1.2759   0.0000   0.0000   0.0000   0.2329
 -17.500  -0.5271   0.22667   0.21490  -0.0055  1.0000  0.1144  -1.2540   0.0000   0.0000   0.0000   0.2296
 -17.000  -0.5170   0.22409   0.21238  -0.0084  1.0000  0.1183  -1.2801   0.0000   0.0000   0.0000   0.2243
 -16.500  -0.4991   0.21601   0.20436  -0.0098  1.0000  0.1225  -1.2557   0.0000   0.0000   0.0000   0.2209
 -16.000  -0.4869   0.21167   0.20008  -0.0120  1.0000  0.1281  -1.2607   0.0000   0.0000   0.0000   0.2164
 -15.500  -0.4732   0.20580   0.19430  -0.0137  1.0000  0.1317  -1.2569   0.0000   0.0000   0.0000   0.2122
 -15.000  -0.4597   0.20040   0.18896  -0.0153  1.0000  0.1382  -1.2472   0.0000   0.0000   0.0000   0.2082
 -14.500  -0.4477   0.19504   0.18370  -0.0169  1.0000  0.1424  -1.2453   0.0000   0.0000   0.0000   0.2040
 -14.000  -0.4356   0.18988   0.17862  -0.0182  1.0000  0.1497  -1.2357   0.0000   0.0000   0.0000   0.2002
 -13.500  -0.4221   0.18355   0.17231  -0.0192  1.0000  0.1551  -1.2189   0.0000   0.0000   0.0000   0.1966
 -13.000  -0.4163   0.18032   0.16919  -0.0207  1.0000  0.1619  -1.2302   0.0000   0.0000   0.0000   0.1927
 -12.500  -0.4006   0.17298   0.16194  -0.0211  1.0000  0.1705  -1.1957   0.0000   0.0000   0.0000   0.1899
 -12.000  -0.3894   0.16721   0.15629  -0.0216  1.0000  0.1793  -1.1766   0.0000   0.0000   0.0000   0.1872
 -11.500  -0.3798   0.16182   0.15103  -0.0220  1.0000  0.1893  -1.1608   0.0000   0.0000   0.0000   0.1849
 -11.000  -0.3708   0.15644   0.14578  -0.0222  1.0000  0.2003  -1.1698   0.0000   0.0000   0.0000   0.1832
 -10.500  -0.3623   0.15111   0.14058  -0.0221  1.0000  0.2122  -1.1792   0.0000   0.0000   0.0000   0.1822
 -10.000  -0.3549   0.14592   0.13553  -0.0219  1.0000  0.2243  -1.1901   0.0000   0.0000   0.0000   0.1819
  -9.500  -0.3492   0.14099   0.13077  -0.0214  1.0000  0.2366  -1.2038   0.0000   0.0000   0.0000   0.1825
  -9.000  -0.3471   0.13669   0.12656  -0.0207  1.0000  0.2492  -1.2232   0.0000   0.0000   0.0000   0.1845
  -8.500  -0.3381   0.13066   0.12071  -0.0195  1.0000  0.2632  -1.2245   0.0000   0.0000   0.0000   0.1866
  -8.000  -0.3333   0.12562   0.11585  -0.0179  1.0000  0.2804  -1.2301   0.0000   0.0000   0.0000   0.1909
  -7.500  -0.3290   0.12042   0.11085  -0.0159  1.0000  0.2974  -1.2349   0.0000   0.0000   0.0000   0.1965
  -7.000  -0.3350   0.11692   0.10761  -0.0131  1.0000  0.3162  -1.2535   0.0000   0.0000   0.0000   0.2061
  -6.500  -0.3329   0.11183   0.10273  -0.0099  1.0000  0.3387  -1.2529   0.0000   0.0000   0.0000   0.2158
  -6.000  -0.3278   0.10632   0.09742  -0.0063  1.0000  0.3659  -1.2437   0.0000   0.0000   0.0000   0.2266
  -5.500  -0.3319   0.10193   0.09329  -0.0017  1.0000  0.3955  -1.2454   0.0000   0.0000   0.0000   0.2411
  -5.000  -0.3334   0.09729   0.08888   0.0032  1.0000  0.4349  -1.2393   0.0000   0.0000   0.0000   0.2560
  -4.500  -0.3264   0.09145   0.08317   0.0086  1.0000  0.4872  -1.2164   0.0000   0.0000   0.0000   0.2731
  -4.000  -0.3130   0.08489   0.07678   0.0159  1.0000  0.5735  -1.1757   0.0000   0.0000   0.0000   0.2978
  -3.000  -0.2341   0.07159   0.06320  -0.0382  1.0000  0.2189  -1.4946   0.0000   0.0000   0.0000   0.0838
  -2.500  -0.1419   0.06119   0.05229  -0.0597  1.0000  0.1824  -1.5397   0.0000   0.0000   0.0000  -0.1757
  -2.000  -0.0245   0.05099   0.04121  -0.0827  1.0000  0.1716  -1.5940   0.0000   0.0000   0.0000  -3.1514
  -1.500   0.0824   0.04390   0.03321  -0.0982  1.0000  0.1990  -1.5816   0.0000   0.0000   0.0000   1.4483
  -1.000   0.1829   0.03910   0.02715  -0.1092  1.0000  0.2522  -1.4935   0.0000   0.0000   0.0000   0.8492
  -0.500   0.2554   0.03671   0.02417  -0.1131  1.0000  0.3354  -1.2913   0.0000   0.0000   0.0000   0.6933
   0.000   0.3170   0.03495   0.02262  -0.1140  1.0000  0.4923  -1.0682   0.0000   0.0000   0.0000   0.6093
   0.500   0.3446   0.03233   0.02114  -0.1084  1.0000  1.0000  -0.9446   0.0000   0.0000   0.0000   0.5636
   1.000   0.4049   0.03413   0.02141  -0.1120  1.0000  1.0000  -0.6950   0.0000   0.0000   0.0000   0.5251
   1.500   0.4490   0.03613   0.02278  -0.1127  1.0000  1.0000  -0.6014   0.0000   0.0000   0.0000   0.4987
   2.000   0.4886   0.03848   0.02473  -0.1131  1.0000  1.0000  -0.6450   0.0000   0.0000   0.0000   0.4787
   2.500   0.5244   0.04124   0.02727  -0.1135  1.0000  1.0000  -0.6875   0.0000   0.0000   0.0000   0.4633
   3.000   0.5566   0.04447   0.03041  -0.1142  1.0000  1.0000  -0.7311   0.0000   0.0000   0.0000   0.4514
   3.500   0.6419   0.04886   0.03478  -0.1246  0.9584  1.0000  -0.8270   0.0000   0.0000   0.0000   0.4399
   4.000   0.7361   0.05204   0.03810  -0.1344  0.9015  1.0000  -0.9441   0.0000   0.0000   0.0000   0.4279
   4.500   0.8229   0.05432   0.04062  -0.1409  0.8423  1.0000  -1.0708   0.0000   0.0000   0.0000   0.4162
   5.000   0.9114   0.05565   0.04236  -0.1455  0.7822  1.0000  -1.2180   0.0000   0.0000   0.0000   0.4041
   5.500   0.9873   0.05655   0.04370  -0.1465  0.7201  1.0000  -1.3744   0.0000   0.0000   0.0000   0.3923
   6.000   1.0720   0.05595   0.04370  -0.1458  0.6573  1.0000  -1.6005   0.0000   0.0000   0.0000   0.3794
   6.500   1.1660   0.05422   0.04267  -0.1439  0.5902  1.0000  -1.8605   0.0000   0.0000   0.0000   0.3661
   7.000   1.2600   0.05280   0.04164  -0.1412  0.5178  1.0000  -2.3010   0.0000   0.0000   0.0000   0.3541
   7.500   1.3219   0.05462   0.04368  -0.1374  0.4531  1.0000  -2.6402   0.0000   0.0000   0.0000   0.3453
   8.000   1.3604   0.05872   0.04827  -0.1330  0.4000  1.0000  -2.8989   0.0000   0.0000   0.0000   0.3385
   8.500   1.3716   0.06509   0.05507  -0.1278  0.3607  1.0000  -3.0729   0.0000   0.0000   0.0000   0.3333
   9.000   1.3730   0.07255   0.06293  -0.1228  0.3295  1.0000  -3.1964   0.0000   0.0000   0.0000   0.3289
   9.500   1.3495   0.08212   0.07284  -0.1181  0.3098  1.0000  -3.2005   0.0000   0.0000   0.0000   0.3265
  10.000   1.2609   0.09987   0.09064  -0.1194  0.3092  1.0000  -2.8705   0.0000   0.0000   0.0000   0.3333
  10.500   1.2141   0.11661   0.10736  -0.1250  0.2994  1.0000  -2.6830   0.0000   0.0000   0.0000   0.3411
  11.000   1.1846   0.13134   0.12208  -0.1306  0.2880  1.0000  -2.5591   0.0000   0.0000   0.0000   0.3479
  11.500   1.1706   0.14404   0.13483  -0.1353  0.2773  1.0000  -2.4965   0.0000   0.0000   0.0000   0.3527
  12.000   1.1607   0.15549   0.14634  -0.1398  0.2646  1.0000  -2.4473   0.0000   0.0000   0.0000   0.3570
  12.500   1.1545   0.16755   0.15846  -0.1457  0.2614  1.0000  -2.3786   0.0000   0.0000   0.0000   0.3622
  13.000   1.1643   0.17681   0.16785  -0.1483  0.2453  1.0000  -2.4076   0.0000   0.0000   0.0000   0.3627
  13.500   1.1663   0.18840   0.17954  -0.1543  0.2468  1.0000  -2.3414   0.0000   0.0000   0.0000   0.3670
  14.000   1.1365   0.20848   0.19955  -0.1756  0.3877  1.0000  -1.9725   0.0000   0.0000   0.0000   0.3889
  14.500   1.1510   0.21726   0.20846  -0.1792  0.3770  1.0000  -1.9677   0.0000   0.0000   0.0000   0.3894
  15.000   1.1608   0.22333   0.21461  -0.1820  0.3524  1.0000  -1.9487   0.0000   0.0000   0.0000   0.3897
  15.500   1.1745   0.23121   0.22257  -0.1859  0.3404  1.0000  -1.9152   0.0000   0.0000   0.0000   0.3904
  16.000   1.1912   0.23898   0.23040  -0.1889  0.3191  1.0000  -1.8901   0.0000   0.0000   0.0000   0.3899
  16.500   1.2077   0.24625   0.23772  -0.1920  0.2970  1.0000  -1.8663   0.0000   0.0000   0.0000   0.3894
  17.000   1.2296   0.25564   0.24718  -0.1947  0.2785  1.0000  -1.8941   0.0000   0.0000   0.0000   0.3879
  17.500   1.2401   0.26039   0.25195  -0.1990  0.2617  1.0000  -1.8868   0.0000   0.0000   0.0000   0.3892
  18.000   1.2568   0.26775   0.25937  -0.2029  0.2496  1.0000  -1.8963   0.0000   0.0000   0.0000   0.3892
  18.500   1.2719   0.27461   0.26627  -0.2074  0.2411  1.0000  -1.8933   0.0000   0.0000   0.0000   0.3899
  19.000   1.2889   0.28215   0.27387  -0.2116  0.2327  1.0000  -1.9127   0.0000   0.0000   0.0000   0.3900
  19.500   1.3079   0.29073   0.28263  -0.2154  0.2238  1.0000  -1.9705   0.0000   0.0000   0.0000   0.3896
  20.000   1.3258   0.29856   0.29057  -0.2194  0.2142  1.0000  -2.0433   0.0000   0.0000   0.0000   0.3893


