xflr5 v6.61

 Calculated polar for: BLD_50

 1 1 Reynolds number fixed          Mach number fixed         

 xtrf =   1.000 (top)        1.000 (bottom)
 Mach =   0.200     Re =     0.100 e 6     Ncrit =   7.000

  alpha     CL        CD       CDp       Cm    Top Xtr Bot Xtr   Cpmin    Chinge    XCp    
 ------- -------- --------- --------- -------- ------- ------- -------- --------- ---------
 -24.000  -0.7577   0.29210   0.28614   0.0474  1.0000  0.0168  -1.6770   0.0000   0.0000   0.0000   0.2968
 -23.500  -0.7413   0.28465   0.27867   0.0440  1.0000  0.0173  -1.5864   0.0000   0.0000   0.0000   0.2943
 -23.000  -0.7246   0.27884   0.27285   0.0401  1.0000  0.0179  -1.5306   0.0000   0.0000   0.0000   0.2908
 -22.500  -0.7077   0.27318   0.26718   0.0360  1.0000  0.0186  -1.4851   0.0000   0.0000   0.0000   0.2870
 -22.000  -0.6906   0.26749   0.26149   0.0320  1.0000  0.0194  -1.4442   0.0000   0.0000   0.0000   0.2830
 -21.500  -0.6735   0.26177   0.25574   0.0281  1.0000  0.0203  -1.4071   0.0000   0.0000   0.0000   0.2788
 -21.000  -0.6562   0.25607   0.25004   0.0241  1.0000  0.0212  -1.4140   0.0000   0.0000   0.0000   0.2743
 -20.500  -0.6388   0.25102   0.24500   0.0198  1.0000  0.0220  -1.4705   0.0000   0.0000   0.0000   0.2689
 -20.000  -0.6238   0.24809   0.24209   0.0147  1.0000  0.0223  -1.5757   0.0000   0.0000   0.0000   0.2620
 -19.500  -0.6054   0.23901   0.23303   0.0125  1.0000  0.0228  -1.5117   0.0000   0.0000   0.0000   0.2594
 -19.000  -0.5883   0.23253   0.22655   0.0096  1.0000  0.0237  -1.4643   0.0000   0.0000   0.0000   0.2556
 -18.500  -0.5715   0.22663   0.22063   0.0065  1.0000  0.0248  -1.4478   0.0000   0.0000   0.0000   0.2509
 -18.000  -0.5548   0.22080   0.21481   0.0033  1.0000  0.0260  -1.4428   0.0000   0.0000   0.0000   0.2458
 -17.500  -0.5384   0.21523   0.20926  -0.0001  1.0000  0.0272  -1.4531   0.0000   0.0000   0.0000   0.2401
 -17.000  -0.5238   0.21127   0.20532  -0.0041  1.0000  0.0281  -1.5057   0.0000   0.0000   0.0000   0.2327
 -16.500  -0.5135   0.20892   0.20302  -0.0084  1.0000  0.0284  -1.5740   0.0000   0.0000   0.0000   0.2247
 -16.000  -0.4953   0.19956   0.19370  -0.0101  1.0000  0.0289  -1.5151   0.0000   0.0000   0.0000   0.2207
 -15.500  -0.4771   0.19122   0.18537  -0.0111  1.0000  0.0300  -1.3954   0.0000   0.0000   0.0000   0.2181
 -15.000  -0.4621   0.18513   0.17926  -0.0130  1.0000  0.0314  -1.3356   0.0000   0.0000   0.0000   0.2134
 -14.500  -0.4479   0.17925   0.17342  -0.0151  1.0000  0.0333  -1.3022   0.0000   0.0000   0.0000   0.2081
 -14.000  -0.4348   0.17363   0.16783  -0.0174  1.0000  0.0359  -1.3323   0.0000   0.0000   0.0000   0.2020
 -13.500  -0.4263   0.16971   0.16397  -0.0207  1.0000  0.0372  -1.4380   0.0000   0.0000   0.0000   0.1937
 -13.000  -0.4228   0.16661   0.16094  -0.0240  1.0000  0.0375  -1.5551   0.0000   0.0000   0.0000   0.1860
 -12.500  -0.4009   0.15592   0.15028  -0.0232  1.0000  0.0386  -1.4462   0.0000   0.0000   0.0000   0.1848
 -12.000  -0.3880   0.14965   0.14404  -0.0239  1.0000  0.0405  -1.4122   0.0000   0.0000   0.0000   0.1813
 -11.500  -0.3775   0.14389   0.13834  -0.0251  1.0000  0.0428  -1.4185   0.0000   0.0000   0.0000   0.1765
 -11.000  -0.3704   0.13889   0.13341  -0.0270  1.0000  0.0452  -1.4739   0.0000   0.0000   0.0000   0.1703
 -10.500  -0.3730   0.13601   0.13063  -0.0301  1.0000  0.0460  -1.6062   0.0000   0.0000   0.0000   0.1631
 -10.000  -0.3593   0.12781   0.12245  -0.0297  1.0000  0.0470  -1.5593   0.0000   0.0000   0.0000   0.1613
  -9.500  -0.3460   0.12116   0.11585  -0.0287  1.0000  0.0492  -1.4682   0.0000   0.0000   0.0000   0.1612
  -9.000  -0.3398   0.11588   0.11066  -0.0287  1.0000  0.0519  -1.4545   0.0000   0.0000   0.0000   0.1599
  -8.500  -0.3405   0.11155   0.10645  -0.0294  1.0000  0.0548  -1.5053   0.0000   0.0000   0.0000   0.1586
  -8.000  -0.2859   0.10197   0.09734  -0.0277  1.0000  0.0597  -1.2761   0.0000   0.0000   0.0000   0.1498
  -7.500  -0.2925   0.09750   0.09300  -0.0260  1.0000  0.0638  -1.2912   0.0000   0.0000   0.0000   0.1579
  -7.000  -0.3192   0.09513   0.09081  -0.0239  1.0000  0.0655  -1.4074   0.0000   0.0000   0.0000   0.1727
  -6.500  -0.3448   0.09246   0.08833  -0.0242  1.0000  0.0659  -1.5459   0.0000   0.0000   0.0000   0.1780
  -5.500  -0.3602   0.08380   0.07953  -0.0220  1.0000  0.0705  -1.5755   0.0000   0.0000   0.0000   0.1864
  -4.500  -0.3220   0.07094   0.06676  -0.0329  1.0000  0.0793  -1.6527   0.0000   0.0000   0.0000   0.1455
  -3.500  -0.1418   0.04763   0.04269  -0.0741  0.9890  0.0693  -1.8499   0.0000   0.0000   0.0000  -0.2776
  -3.000  -0.0026   0.03103   0.02440  -0.0992  0.9885  0.0493  -2.2322   0.0000   0.0000   0.0000  -37.5586
  -2.500   0.1021   0.02445   0.01629  -0.1098  0.9844  0.0511  -2.1028   0.0000   0.0000   0.0000   1.3327
  -2.000   0.1962   0.02147   0.01266  -0.1171  0.9778  0.0715  -1.8783   0.0000   0.0000   0.0000   0.8498
  -1.500   0.2792   0.02037   0.01155  -0.1227  0.9651  0.1271  -1.4685   0.0000   0.0000   0.0000   0.6913
  -1.000   0.3630   0.01921   0.01069  -0.1284  0.9526  0.2261  -1.0828   0.0000   0.0000   0.0000   0.6044
  -0.500   0.4460   0.01769   0.01039  -0.1339  0.9408  0.5769  -0.7166   0.0000   0.0000   0.0000   0.5503
   0.000   0.5052   0.01671   0.00976  -0.1330  0.9207  1.0000  -0.5969   0.0000   0.0000   0.0000   0.5127
   0.500   0.5789   0.01653   0.00927  -0.1357  0.9010  1.0000  -0.6541   0.0000   0.0000   0.0000   0.4834
   1.500   0.7263   0.01573   0.00819  -0.1402  0.8592  1.0000  -0.7897   0.0000   0.0000   0.0000   0.4411
   2.000   0.7993   0.01524   0.00767  -0.1420  0.8347  1.0000  -0.8730   0.0000   0.0000   0.0000   0.4252
   2.500   0.8672   0.01493   0.00733  -0.1428  0.8027  1.0000  -0.9733   0.0000   0.0000   0.0000   0.4117
   3.000   0.9308   0.01485   0.00727  -0.1427  0.7636  1.0000  -1.0908   0.0000   0.0000   0.0000   0.4000
   3.500   0.9915   0.01500   0.00737  -0.1422  0.7202  1.0000  -1.2568   0.0000   0.0000   0.0000   0.3895
   4.000   1.0482   0.01538   0.00770  -0.1409  0.6732  1.0000  -1.4784   0.0000   0.0000   0.0000   0.3800
   4.500   1.0999   0.01597   0.00824  -0.1388  0.6222  1.0000  -1.7751   0.0000   0.0000   0.0000   0.3712
   5.000   1.1487   0.01671   0.00898  -0.1362  0.5688  1.0000  -2.1145   0.0000   0.0000   0.0000   0.3631
   5.500   1.1944   0.01759   0.00981  -0.1332  0.5118  1.0000  -2.4824   0.0000   0.0000   0.0000   0.3554
   6.000   1.2353   0.01862   0.01078  -0.1294  0.4451  1.0000  -2.8490   0.0000   0.0000   0.0000   0.3480
   6.500   1.2670   0.02000   0.01186  -0.1242  0.3471  1.0000  -3.1934   0.0000   0.0000   0.0000   0.3407
   7.000   1.2926   0.02222   0.01362  -0.1188  0.2305  1.0000  -3.5395   0.0000   0.0000   0.0000   0.3339
   7.500   1.3148   0.02519   0.01609  -0.1134  0.1327  1.0000  -3.8865   0.0000   0.0000   0.0000   0.3276
   8.000   1.3287   0.02896   0.01955  -0.1067  0.0768  1.0000  -4.1386   0.0000   0.0000   0.0000   0.3210
   8.500   1.3373   0.03276   0.02336  -0.0991  0.0587  1.0000  -4.3412   0.0000   0.0000   0.0000   0.3142
   9.000   1.3524   0.03637   0.02715  -0.0931  0.0480  1.0000  -4.5939   0.0000   0.0000   0.0000   0.3082
   9.500   1.3736   0.04040   0.03138  -0.0880  0.0421  1.0000  -4.8961   0.0000   0.0000   0.0000   0.3027
  10.000   1.4072   0.04583   0.03721  -0.0846  0.0388  1.0000  -5.2447   0.0000   0.0000   0.0000   0.2981
  10.500   1.4272   0.05203   0.04423  -0.0800  0.0368  1.0000  -5.4762   0.0000   0.0000   0.0000   0.2933
  11.000   1.4232   0.05833   0.05120  -0.0741  0.0351  1.0000  -5.6117   0.0000   0.0000   0.0000   0.2886
  11.500   1.4088   0.06466   0.05800  -0.0692  0.0331  1.0000  -5.7465   0.0000   0.0000   0.0000   0.2849
  12.000   1.3869   0.07248   0.06621  -0.0660  0.0318  1.0000  -5.8264   0.0000   0.0000   0.0000   0.2827
  12.500   1.3536   0.08246   0.07668  -0.0653  0.0313  1.0000  -5.7632   0.0000   0.0000   0.0000   0.2825
  13.000   1.3150   0.09390   0.08863  -0.0681  0.0314  1.0000  -5.6279   0.0000   0.0000   0.0000   0.2853
  13.500   1.2721   0.10801   0.10324  -0.0757  0.0318  1.0000  -5.3929   0.0000   0.0000   0.0000   0.2922
  14.500   0.9751   0.14120   0.13711  -0.0793  0.0402  1.0000  -3.6151   0.0000   0.0000   0.0000   0.3145
  15.500   1.1433   0.19344   0.18904  -0.1320  0.0396  1.0000  -3.1339   0.0000   0.0000   0.0000   0.3474
  16.000   1.1513   0.20412   0.19971  -0.1376  0.0401  1.0000  -3.0398   0.0000   0.0000   0.0000   0.3507


