xflr5 v6.61

 Calculated polar for: BLD_50

 1 1 Reynolds number fixed          Mach number fixed         

 xtrf =   1.000 (top)        1.000 (bottom)
 Mach =   0.200     Re =     0.100 e 6     Ncrit =   9.000

  alpha     CL        CD       CDp       Cm    Top Xtr Bot Xtr   Cpmin    Chinge    XCp    
 ------- -------- --------- --------- -------- ------- ------- -------- --------- ---------
 -11.500  -0.3786   0.14427   0.13874  -0.0252  1.0000  0.0491  -1.4017   0.0000   0.0000   0.0000   0.1765
 -11.000  -0.3683   0.13852   0.13305  -0.0261  1.0000  0.0519  -1.3952   0.0000   0.0000   0.0000   0.1725
 -10.500  -0.3625   0.13374   0.12829  -0.0278  1.0000  0.0548  -1.4427   0.0000   0.0000   0.0000   0.1668
 -10.000  -0.3697   0.13175   0.12643  -0.0310  1.0000  0.0558  -1.5832   0.0000   0.0000   0.0000   0.1603
  -9.750  -0.3749   0.13072   0.12548  -0.0325  1.0000  0.0559  -1.6562   0.0000   0.0000   0.0000   0.1580
  -9.500  -0.3487   0.12200   0.11673  -0.0290  1.0000  0.0578  -1.4580   0.0000   0.0000   0.0000   0.1610
  -9.250  -0.3434   0.11903   0.11379  -0.0286  1.0000  0.0593  -1.4259   0.0000   0.0000   0.0000   0.1610
  -9.000  -0.3401   0.11639   0.11119  -0.0285  1.0000  0.0610  -1.4146   0.0000   0.0000   0.0000   0.1606
  -8.750  -0.3385   0.11396   0.10881  -0.0286  1.0000  0.0628  -1.4185   0.0000   0.0000   0.0000   0.1602
  -8.500  -0.3402   0.11208   0.10700  -0.0290  1.0000  0.0646  -1.4505   0.0000   0.0000   0.0000   0.1597
  -8.250  -0.3486   0.11121   0.10623  -0.0297  1.0000  0.0654  -1.5214   0.0000   0.0000   0.0000   0.1603
  -8.000  -0.3608   0.11067   0.10580  -0.0297  1.0000  0.0657  -1.5977   0.0000   0.0000   0.0000   0.1635
  -7.750  -0.3751   0.11012   0.10536  -0.0288  1.0000  0.0659  -1.6681   0.0000   0.0000   0.0000   0.1694
  -7.500  -0.3393   0.10204   0.09721  -0.0261  1.0000  0.0701  -1.4241   0.0000   0.0000   0.0000   0.1688
  -7.250  -0.3431   0.10019   0.09543  -0.0249  1.0000  0.0724  -1.4262   0.0000   0.0000   0.0000   0.1735
  -7.000  -0.3539   0.09908   0.09442  -0.0234  1.0000  0.0742  -1.4616   0.0000   0.0000   0.0000   0.1804
  -6.750  -0.3672   0.09838   0.09385  -0.0236  1.0000  0.0752  -1.5350   0.0000   0.0000   0.0000   0.1826
  -6.500  -0.3741   0.09726   0.09282  -0.0287  1.0000  0.0758  -1.6495   0.0000   0.0000   0.0000   0.1704
  -6.250  -0.3656   0.09231   0.08790  -0.0211  1.0000  0.0780  -1.4952   0.0000   0.0000   0.0000   0.1895
  -6.000  -0.3637   0.08982   0.08546  -0.0197  1.0000  0.0803  -1.4772   0.0000   0.0000   0.0000   0.1930
  -5.750  -0.3633   0.08746   0.08316  -0.0202  1.0000  0.0830  -1.4938   0.0000   0.0000   0.0000   0.1918
  -5.500  -0.3549   0.08519   0.08091  -0.0325  1.0000  0.0864  -1.6526   0.0000   0.0000   0.0000   0.1560
  -5.250  -0.3535   0.08153   0.07732  -0.0283  1.0000  0.0875  -1.6051   0.0000   0.0000   0.0000   0.1677
  -5.000  -0.3498   0.07881   0.07464  -0.0251  1.0000  0.0897  -1.5537   0.0000   0.0000   0.0000   0.1759
  -4.750  -0.3400   0.07592   0.07177  -0.0271  1.0000  0.0938  -1.5549   0.0000   0.0000   0.0000   0.1680
  -4.500  -0.3183   0.07164   0.06742  -0.0361  1.0000  0.0983  -1.6253   0.0000   0.0000   0.0000   0.1344
  -4.250  -0.3115   0.06905   0.06486  -0.0338  1.0000  0.1013  -1.5717   0.0000   0.0000   0.0000   0.1392
  -4.000  -0.2797   0.06453   0.06024  -0.0438  1.0000  0.1090  -1.6201   0.0000   0.0000   0.0000   0.0913
  -3.750  -0.2437   0.06051   0.05605  -0.0528  1.0000  0.1190  -1.6417   0.0000   0.0000   0.0000   0.0308
  -3.500  -0.2127   0.05709   0.05247  -0.0585  1.0000  0.1295  -1.6249   0.0000   0.0000   0.0000  -0.0276
  -3.250  -0.2051   0.05412   0.04966  -0.0553  1.0000  0.1317  -1.5432   0.0000   0.0000   0.0000  -0.0221
  -3.000  -0.1665   0.05078   0.04612  -0.0624  1.0000  0.1520  -1.5090   0.0000   0.0000   0.0000  -0.1282
  -2.500  -0.0290   0.02755   0.02209  -0.0840  0.9893  0.0998  -1.6003   0.0000   0.0000   0.0000  -2.6629
  -2.250   0.0417   0.02859   0.02138  -0.0957  1.0000  0.0722  -1.8895   0.0000   0.0000   0.0000   2.5581
  -2.000   0.1054   0.01463   0.00688  -0.1001  0.9869  0.0746  -1.7517   0.0000   0.0000   0.0000   1.2036
  -1.750   0.1275   0.02416   0.01569  -0.1017  1.0000  0.0778  -1.8238   0.0000   0.0000   0.0000   1.0519
  -1.500   0.1750   0.02327   0.01468  -0.1057  0.9968  0.1022  -1.6927   0.0000   0.0000   0.0000   0.8566
  -1.250   0.2250   0.02275   0.01409  -0.1103  0.9909  0.1379  -1.4989   0.0000   0.0000   0.0000   0.7417
  -1.000   0.2752   0.02209   0.01350  -0.1147  0.9858  0.1747  -1.2885   0.0000   0.0000   0.0000   0.6676
  -0.750   0.3247   0.02149   0.01315  -0.1191  0.9797  0.2422  -1.1032   0.0000   0.0000   0.0000   0.6174
  -0.500   0.3726   0.02079   0.01300  -0.1234  0.9730  0.3774  -0.9149   0.0000   0.0000   0.0000   0.5813
  -0.250   0.4026   0.01915   0.01285  -0.1229  0.9643  1.0000  -0.7684   0.0000   0.0000   0.0000   0.5550
   0.000   0.4472   0.01936   0.01269  -0.1261  0.9539  1.0000  -0.5860   0.0000   0.0000   0.0000   0.5316
   0.250   0.4906   0.01950   0.01257  -0.1292  0.9432  1.0000  -0.5879   0.0000   0.0000   0.0000   0.5125
   0.500   0.5335   0.01955   0.01246  -0.1320  0.9323  1.0000  -0.6196   0.0000   0.0000   0.0000   0.4963
   0.750   0.5759   0.01953   0.01231  -0.1345  0.9212  1.0000  -0.6528   0.0000   0.0000   0.0000   0.4824
   1.000   0.6180   0.01942   0.01211  -0.1369  0.9102  1.0000  -0.6876   0.0000   0.0000   0.0000   0.4700
   1.250   0.6597   0.01922   0.01184  -0.1390  0.8991  1.0000  -0.7241   0.0000   0.0000   0.0000   0.4590
   1.500   0.7011   0.01892   0.01151  -0.1410  0.8881  1.0000  -0.7634   0.0000   0.0000   0.0000   0.4491
   1.750   0.7427   0.01853   0.01110  -0.1427  0.8773  1.0000  -0.8065   0.0000   0.0000   0.0000   0.4400
   2.000   0.7802   0.01820   0.01079  -0.1437  0.8642  1.0000  -0.8490   0.0000   0.0000   0.0000   0.4318
   2.250   0.8175   0.01782   0.01043  -0.1445  0.8508  1.0000  -0.8979   0.0000   0.0000   0.0000   0.4241
   2.500   0.8567   0.01735   0.00998  -0.1455  0.8376  1.0000  -0.9547   0.0000   0.0000   0.0000   0.4169
   2.750   0.8969   0.01684   0.00949  -0.1465  0.8241  1.0000  -1.0177   0.0000   0.0000   0.0000   0.4103
   3.000   0.9299   0.01660   0.00931  -0.1464  0.8060  1.0000  -1.0810   0.0000   0.0000   0.0000   0.4041
   3.250   0.9646   0.01635   0.00908  -0.1466  0.7877  1.0000  -1.1628   0.0000   0.0000   0.0000   0.3984
   3.500   0.9981   0.01619   0.00891  -0.1465  0.7679  1.0000  -1.2572   0.0000   0.0000   0.0000   0.3929
   3.750   1.0286   0.01616   0.00893  -0.1459  0.7458  1.0000  -1.3486   0.0000   0.0000   0.0000   0.3878
   4.000   1.0575   0.01624   0.00899  -0.1451  0.7223  1.0000  -1.4889   0.0000   0.0000   0.0000   0.3829
   4.250   1.0856   0.01637   0.00911  -0.1442  0.6978  1.0000  -1.6421   0.0000   0.0000   0.0000   0.3782
   4.500   1.1133   0.01655   0.00924  -0.1431  0.6728  1.0000  -1.7990   0.0000   0.0000   0.0000   0.3737
   4.750   1.1380   0.01683   0.00958  -0.1417  0.6456  1.0000  -1.9629   0.0000   0.0000   0.0000   0.3693
   5.000   1.1634   0.01713   0.00984  -0.1403  0.6188  1.0000  -2.1499   0.0000   0.0000   0.0000   0.3651
   5.250   1.1865   0.01750   0.01021  -0.1386  0.5899  1.0000  -2.3338   0.0000   0.0000   0.0000   0.3610
   5.500   1.2093   0.01789   0.01057  -0.1368  0.5599  1.0000  -2.5211   0.0000   0.0000   0.0000   0.3571
   5.750   1.2307   0.01832   0.01097  -0.1348  0.5279  1.0000  -2.7077   0.0000   0.0000   0.0000   0.3531
   6.000   1.2499   0.01877   0.01138  -0.1324  0.4912  1.0000  -2.8896   0.0000   0.0000   0.0000   0.3492
   6.250   1.2661   0.01926   0.01177  -0.1295  0.4476  1.0000  -3.0642   0.0000   0.0000   0.0000   0.3453
   6.500   1.2804   0.01985   0.01224  -0.1265  0.3988  1.0000  -3.2324   0.0000   0.0000   0.0000   0.3414
   6.750   1.2929   0.02062   0.01294  -0.1233  0.3431  1.0000  -3.3972   0.0000   0.0000   0.0000   0.3377
   7.000   1.3036   0.02170   0.01375  -0.1201  0.2824  1.0000  -3.5747   0.0000   0.0000   0.0000   0.3341
   7.250   1.3124   0.02315   0.01488  -0.1168  0.2208  1.0000  -3.7364   0.0000   0.0000   0.0000   0.3306
   7.500   1.3173   0.02509   0.01640  -0.1131  0.1606  1.0000  -3.8661   0.0000   0.0000   0.0000   0.3271
   7.750   1.3198   0.02740   0.01835  -0.1090  0.1177  1.0000  -3.9555   0.0000   0.0000   0.0000   0.3236
   8.000   1.3234   0.02970   0.02047  -0.1049  0.0932  1.0000  -4.0288   0.0000   0.0000   0.0000   0.3200
   8.250   1.3299   0.03191   0.02255  -0.1013  0.0804  1.0000  -4.1159   0.0000   0.0000   0.0000   0.3166
   8.500   1.3429   0.03400   0.02464  -0.0987  0.0713  1.0000  -4.2304   0.0000   0.0000   0.0000   0.3135
   8.750   1.3584   0.03603   0.02676  -0.0966  0.0637  1.0000  -4.3659   0.0000   0.0000   0.0000   0.3108
   9.000   1.3828   0.03877   0.02944  -0.0960  0.0587  1.0000  -4.5291   0.0000   0.0000   0.0000   0.3087
   9.250   1.4075   0.04149   0.03250  -0.0948  0.0555  1.0000  -4.7091   0.0000   0.0000   0.0000   0.3064
   9.500   1.4303   0.04451   0.03577  -0.0937  0.0531  1.0000  -4.8868   0.0000   0.0000   0.0000   0.3042
   9.750   1.4495   0.04789   0.03939  -0.0924  0.0516  1.0000  -5.0477   0.0000   0.0000   0.0000   0.3020
  10.000   1.4647   0.05195   0.04383  -0.0908  0.0507  1.0000  -5.1728   0.0000   0.0000   0.0000   0.2999
  10.250   1.4695   0.05626   0.04850  -0.0881  0.0499  1.0000  -5.2381   0.0000   0.0000   0.0000   0.2976
  10.500   1.4616   0.05924   0.05198  -0.0837  0.0493  1.0000  -5.2530   0.0000   0.0000   0.0000   0.2946
  10.750   1.4481   0.06220   0.05535  -0.0789  0.0488  1.0000  -5.2475   0.0000   0.0000   0.0000   0.2915
  11.000   1.4316   0.06540   0.05891  -0.0744  0.0484  1.0000  -5.2294   0.0000   0.0000   0.0000   0.2887
  11.250   1.4133   0.06895   0.06279  -0.0707  0.0482  1.0000  -5.2005   0.0000   0.0000   0.0000   0.2865
  11.500   1.3937   0.07291   0.06706  -0.0679  0.0480  1.0000  -5.1612   0.0000   0.0000   0.0000   0.2848
  11.750   1.3729   0.07733   0.07176  -0.0661  0.0480  1.0000  -5.1112   0.0000   0.0000   0.0000   0.2839
  12.000   1.3513   0.08225   0.07693  -0.0654  0.0482  1.0000  -5.0508   0.0000   0.0000   0.0000   0.2837
  12.250   1.3292   0.08770   0.08261  -0.0657  0.0484  1.0000  -4.9804   0.0000   0.0000   0.0000   0.2844
  12.500   1.3071   0.09369   0.08881  -0.0672  0.0487  1.0000  -4.9005   0.0000   0.0000   0.0000   0.2860
  12.750   1.2856   0.10022   0.09551  -0.0696  0.0490  1.0000  -4.8123   0.0000   0.0000   0.0000   0.2884
  13.000   1.2652   0.10721   0.10264  -0.0729  0.0494  1.0000  -4.7177   0.0000   0.0000   0.0000   0.2915
  13.250   1.2471   0.11453   0.11007  -0.0766  0.0498  1.0000  -4.6205   0.0000   0.0000   0.0000   0.2951
  13.500   1.2322   0.12196   0.11758  -0.0805  0.0501  1.0000  -4.5275   0.0000   0.0000   0.0000   0.2986
  13.750   1.1312   0.16147   0.15718  -0.1128  0.0670  1.0000  -3.0263   0.0000   0.0000   0.0000   0.3342
  14.000   1.1330   0.17050   0.16623  -0.1158  0.0800  1.0000  -2.8645   0.0000   0.0000   0.0000   0.3365


