xflr5 v6.61

 Calculated polar for: BLD_75

 1 1 Reynolds number fixed          Mach number fixed         

 xtrf =   1.000 (top)        1.000 (bottom)
 Mach =   0.200     Re =     0.080 e 6     Ncrit =   9.000

  alpha     CL        CD       CDp       Cm    Top Xtr Bot Xtr   Cpmin    Chinge    XCp    
 ------- -------- --------- --------- -------- ------- ------- -------- --------- ---------
 -18.000  -0.3912   0.19607   0.19026  -0.0120  1.0000  0.0392  -1.0451   0.0000   0.0000   0.0000   0.2141
 -17.500  -0.3819   0.19153   0.18571  -0.0137  1.0000  0.0411  -1.0344   0.0000   0.0000   0.0000   0.2091
 -17.000  -0.3738   0.18752   0.18165  -0.0155  1.0000  0.0432  -1.0407   0.0000   0.0000   0.0000   0.2035
 -16.500  -0.3675   0.18439   0.17852  -0.0176  1.0000  0.0452  -1.0694   0.0000   0.0000   0.0000   0.1972
 -16.000  -0.3678   0.18424   0.17837  -0.0201  1.0000  0.0460  -1.1439   0.0000   0.0000   0.0000   0.1904
 -15.500  -0.3586   0.17830   0.17245  -0.0213  1.0000  0.0469  -1.1248   0.0000   0.0000   0.0000   0.1857
 -15.000  -0.3468   0.17237   0.16651  -0.0217  1.0000  0.0498  -1.0484   0.0000   0.0000   0.0000   0.1824
 -14.500  -0.3407   0.16868   0.16281  -0.0230  1.0000  0.0531  -1.0382   0.0000   0.0000   0.0000   0.1774
 -14.000  -0.3406   0.16646   0.16061  -0.0250  1.0000  0.0554  -1.0856   0.0000   0.0000   0.0000   0.1715
 -13.500  -0.3504   0.16629   0.16046  -0.0273  1.0000  0.0559  -1.2129   0.0000   0.0000   0.0000   0.1671
 -13.000  -0.3257   0.15507   0.14925  -0.0265  1.0000  0.0589  -1.1122   0.0000   0.0000   0.0000   0.1634
 -12.500  -0.3196   0.14997   0.14413  -0.0274  1.0000  0.0623  -1.1310   0.0000   0.0000   0.0000   0.1593
 -12.000  -0.3200   0.14618   0.14038  -0.0292  1.0000  0.0652  -1.2089   0.0000   0.0000   0.0000   0.1539
 -11.500  -0.3319   0.14455   0.13883  -0.0318  1.0000  0.0659  -1.3463   0.0000   0.0000   0.0000   0.1496
 -11.000  -0.3041   0.13356   0.12786  -0.0299  1.0000  0.0703  -1.2139   0.0000   0.0000   0.0000   0.1468
 -10.500  -0.3024   0.12872   0.12308  -0.0310  1.0000  0.0745  -1.2572   0.0000   0.0000   0.0000   0.1428
 -10.000  -0.3176   0.12680   0.12129  -0.0338  1.0000  0.0758  -1.4010   0.0000   0.0000   0.0000   0.1396
  -9.750  -0.3659   0.12506   0.11917  -0.0296  1.0000  0.0753  -1.5093   0.0000   0.0000   0.0000   0.1637
  -9.500  -0.2906   0.11653   0.11104  -0.0311  1.0000  0.0822  -1.2533   0.0000   0.0000   0.0000   0.1387
  -9.250  -0.3537   0.11761   0.11181  -0.0294  1.0000  0.0781  -1.4781   0.0000   0.0000   0.0000   0.1615
  -9.000  -0.3020   0.11332   0.10797  -0.0328  1.0000  0.0862  -1.3537   0.0000   0.0000   0.0000   0.1378
  -8.750  -0.3472   0.11239   0.10669  -0.0297  1.0000  0.0844  -1.4672   0.0000   0.0000   0.0000   0.1596
  -8.500  -0.2870   0.10529   0.10002  -0.0307  1.0000  0.0914  -1.2692   0.0000   0.0000   0.0000   0.1395
  -8.250  -0.3679   0.11131   0.10584  -0.0319  1.0000  0.0864  -1.6202   0.0000   0.0000   0.0000   0.1591
  -8.000  -0.2983   0.10154   0.09643  -0.0306  1.0000  0.0964  -1.3334   0.0000   0.0000   0.0000   0.1444
  -7.750  -0.3433   0.10214   0.09671  -0.0287  1.0000  0.0940  -1.4693   0.0000   0.0000   0.0000   0.1621
  -7.500  -0.2970   0.09522   0.09024  -0.0283  1.0000  0.0997  -1.3096   0.0000   0.0000   0.0000   0.1518
  -7.250  -0.3706   0.10091   0.09575  -0.0284  1.0000  0.0969  -1.5977   0.0000   0.0000   0.0000   0.1702
  -7.000  -0.3065   0.09095   0.08613  -0.0253  1.0000  0.1053  -1.3129   0.0000   0.0000   0.0000   0.1650
  -6.750  -0.3592   0.09365   0.08858  -0.0242  1.0000  0.1017  -1.4971   0.0000   0.0000   0.0000   0.1796
  -6.500  -0.3624   0.09160   0.08661  -0.0240  1.0000  0.1049  -1.5069   0.0000   0.0000   0.0000   0.1809
  -6.250  -0.3703   0.09055   0.08567  -0.0291  1.0000  0.1075  -1.6066   0.0000   0.0000   0.0000   0.1688
  -6.000  -0.3668   0.08679   0.08197  -0.0262  1.0000  0.1093  -1.5565   0.0000   0.0000   0.0000   0.1761
  -5.750  -0.3631   0.08399   0.07921  -0.0240  1.0000  0.1129  -1.5067   0.0000   0.0000   0.0000   0.1814
  -5.500  -0.3577   0.08190   0.07714  -0.0331  1.0000  0.1185  -1.6025   0.0000   0.0000   0.0000   0.1553
  -5.250  -0.3552   0.07831   0.07358  -0.0286  1.0000  0.1206  -1.5359   0.0000   0.0000   0.0000   0.1673
  -5.000  -0.3489   0.07557   0.07087  -0.0279  1.0000  0.1255  -1.5176   0.0000   0.0000   0.0000   0.1680
  -4.500  -0.3157   0.06884   0.06404  -0.0400  1.0000  0.1407  -1.5916   0.0000   0.0000   0.0000   0.1212
  -4.250  -0.3123   0.06590   0.06119  -0.0355  1.0000  0.1440  -1.5329   0.0000   0.0000   0.0000   0.1344
  -4.000  -0.2951   0.06267   0.05794  -0.0384  1.0000  0.1546  -1.5227   0.0000   0.0000   0.0000   0.1179
  -3.750  -0.2783   0.05980   0.05504  -0.0400  1.0000  0.1683  -1.4934   0.0000   0.0000   0.0000   0.1042
  -3.500  -0.2528   0.05642   0.05156  -0.0450  1.0000  0.1860  -1.4796   0.0000   0.0000   0.0000   0.0701
  -3.250  -0.2231   0.05341   0.04840  -0.0501  1.0000  0.2065  -1.4562   0.0000   0.0000   0.0000   0.0230
  -2.750  -0.1004   0.03952   0.03312  -0.0728  1.0000  0.1295  -1.6824   0.0000   0.0000   0.0000  -0.4806
  -2.500  -0.0418   0.03232   0.02510  -0.0798  1.0000  0.0928  -1.8124   0.0000   0.0000   0.0000  -1.6739
  -2.250   0.0053   0.02852   0.02036  -0.0839  1.0000  0.0890  -1.8278   0.0000   0.0000   0.0000  16.2487
  -2.000   0.0410   0.02679   0.01801  -0.0857  1.0000  0.0967  -1.7771   0.0000   0.0000   0.0000   2.3520
  -1.750   0.0707   0.02570   0.01682  -0.0868  1.0000  0.1106  -1.6802   0.0000   0.0000   0.0000   1.4837
  -1.500   0.1035   0.02449   0.01534  -0.0879  1.0000  0.1233  -1.6110   0.0000   0.0000   0.0000   1.1038
  -1.250   0.1314   0.02404   0.01482  -0.0887  1.0000  0.1469  -1.4897   0.0000   0.0000   0.0000   0.9273
  -1.000   0.1702   0.02341   0.01415  -0.0911  0.9973  0.1760  -1.3377   0.0000   0.0000   0.0000   0.7869
  -0.750   0.2219   0.02272   0.01360  -0.0959  0.9905  0.2336  -1.1676   0.0000   0.0000   0.0000   0.6831
  -0.500   0.2737   0.02186   0.01324  -0.1007  0.9842  0.3647  -0.9880   0.0000   0.0000   0.0000   0.6184
  -0.250   0.3093   0.02008   0.01295  -0.1015  0.9749  1.0000  -0.8399   0.0000   0.0000   0.0000   0.5781
   0.000   0.3563   0.02053   0.01297  -0.1055  0.9629  1.0000  -0.6502   0.0000   0.0000   0.0000   0.5458
   0.250   0.4030   0.02090   0.01304  -0.1094  0.9511  1.0000  -0.5440   0.0000   0.0000   0.0000   0.5209
   0.500   0.4495   0.02118   0.01312  -0.1132  0.9395  1.0000  -0.5737   0.0000   0.0000   0.0000   0.5010
   0.750   0.4881   0.02143   0.01323  -0.1154  0.9250  1.0000  -0.5998   0.0000   0.0000   0.0000   0.4853
   1.000   0.5298   0.02159   0.01329  -0.1180  0.9119  1.0000  -0.6292   0.0000   0.0000   0.0000   0.4714
   1.250   0.5724   0.02166   0.01329  -0.1207  0.8996  1.0000  -0.6610   0.0000   0.0000   0.0000   0.4592
   1.500   0.6154   0.02163   0.01321  -0.1231  0.8877  1.0000  -0.6946   0.0000   0.0000   0.0000   0.4483
   1.750   0.6532   0.02163   0.01318  -0.1246  0.8741  1.0000  -0.7265   0.0000   0.0000   0.0000   0.4388
   2.000   0.6914   0.02156   0.01312  -0.1260  0.8608  1.0000  -0.7607   0.0000   0.0000   0.0000   0.4301
   2.250   0.7301   0.02139   0.01299  -0.1273  0.8483  1.0000  -0.7980   0.0000   0.0000   0.0000   0.4219
   2.500   0.7684   0.02116   0.01279  -0.1283  0.8361  1.0000  -0.8388   0.0000   0.0000   0.0000   0.4144
   2.750   0.8065   0.02089   0.01256  -0.1292  0.8239  1.0000  -0.8856   0.0000   0.0000   0.0000   0.4073
   3.000   0.8380   0.02085   0.01258  -0.1290  0.8088  1.0000  -0.9360   0.0000   0.0000   0.0000   0.4009
   3.250   0.8716   0.02070   0.01253  -0.1291  0.7945  1.0000  -1.0166   0.0000   0.0000   0.0000   0.3948
   3.500   0.9070   0.02045   0.01235  -0.1292  0.7810  1.0000  -1.1188   0.0000   0.0000   0.0000   0.3889
   3.750   0.9357   0.02053   0.01250  -0.1285  0.7643  1.0000  -1.2595   0.0000   0.0000   0.0000   0.3836
   4.000   0.9685   0.02039   0.01249  -0.1282  0.7491  1.0000  -1.4169   0.0000   0.0000   0.0000   0.3783
   4.250   0.9964   0.02051   0.01270  -0.1273  0.7314  1.0000  -1.5653   0.0000   0.0000   0.0000   0.3735
   4.500   1.0277   0.02044   0.01271  -0.1266  0.7145  1.0000  -1.7600   0.0000   0.0000   0.0000   0.3687
   4.750   1.0557   0.02052   0.01288  -0.1254  0.6951  1.0000  -1.9491   0.0000   0.0000   0.0000   0.3640
   5.000   1.0829   0.02058   0.01309  -0.1240  0.6737  1.0000  -2.1421   0.0000   0.0000   0.0000   0.3595
   5.250   1.1101   0.02058   0.01313  -0.1225  0.6501  1.0000  -2.3423   0.0000   0.0000   0.0000   0.3550
   5.500   1.1339   0.02065   0.01329  -0.1203  0.6222  1.0000  -2.5509   0.0000   0.0000   0.0000   0.3505
   5.750   1.1571   0.02059   0.01325  -0.1179  0.5898  1.0000  -2.7826   0.0000   0.0000   0.0000   0.3459
   6.000   1.1786   0.02055   0.01318  -0.1151  0.5531  1.0000  -3.0127   0.0000   0.0000   0.0000   0.3414
   6.250   1.1965   0.02071   0.01339  -0.1120  0.5125  1.0000  -3.2250   0.0000   0.0000   0.0000   0.3370
   6.500   1.2103   0.02093   0.01358  -0.1083  0.4592  1.0000  -3.4191   0.0000   0.0000   0.0000   0.3325
   6.750   1.2161   0.02151   0.01390  -0.1035  0.3705  1.0000  -3.5685   0.0000   0.0000   0.0000   0.3278
   7.000   1.2085   0.02390   0.01513  -0.0976  0.2119  1.0000  -3.6273   0.0000   0.0000   0.0000   0.3231
   7.250   1.2033   0.02722   0.01770  -0.0927  0.1340  1.0000  -3.6477   0.0000   0.0000   0.0000   0.3191
   7.500   1.2079   0.02973   0.01997  -0.0888  0.1073  1.0000  -3.6983   0.0000   0.0000   0.0000   0.3153
   7.750   1.2197   0.03203   0.02211  -0.0859  0.0930  1.0000  -3.7791   0.0000   0.0000   0.0000   0.3119
   8.000   1.2398   0.03439   0.02434  -0.0842  0.0820  1.0000  -3.9524   0.0000   0.0000   0.0000   0.3091
   8.250   1.2623   0.03667   0.02665  -0.0830  0.0725  1.0000  -4.1472   0.0000   0.0000   0.0000   0.3066
   8.500   1.2942   0.03985   0.03002  -0.0828  0.0678  1.0000  -4.3255   0.0000   0.0000   0.0000   0.3045
   8.750   1.3215   0.04310   0.03358  -0.0819  0.0647  1.0000  -4.4738   0.0000   0.0000   0.0000   0.3022
   9.000   1.3458   0.04674   0.03748  -0.0810  0.0628  1.0000  -4.6100   0.0000   0.0000   0.0000   0.3000
   9.250   1.3628   0.05106   0.04203  -0.0796  0.0606  1.0000  -4.7212   0.0000   0.0000   0.0000   0.2980
   9.500   1.3638   0.05402   0.04566  -0.0758  0.0590  1.0000  -4.7424   0.0000   0.0000   0.0000   0.2949
   9.750   1.3625   0.05741   0.04956  -0.0723  0.0576  1.0000  -4.7599   0.0000   0.0000   0.0000   0.2921
  10.000   1.3587   0.06117   0.05377  -0.0689  0.0571  1.0000  -4.7611   0.0000   0.0000   0.0000   0.2894
  10.250   1.3507   0.06519   0.05818  -0.0654  0.0574  1.0000  -4.7390   0.0000   0.0000   0.0000   0.2869
  10.500   1.3369   0.06899   0.06232  -0.0617  0.0579  1.0000  -4.7039   0.0000   0.0000   0.0000   0.2844
  10.750   1.3197   0.07283   0.06644  -0.0583  0.0583  1.0000  -4.6610   0.0000   0.0000   0.0000   0.2821
  11.000   1.3011   0.07694   0.07080  -0.0558  0.0588  1.0000  -4.6135   0.0000   0.0000   0.0000   0.2805
  11.250   1.2821   0.08142   0.07550  -0.0542  0.0593  1.0000  -4.5625   0.0000   0.0000   0.0000   0.2796
  11.500   1.2636   0.08630   0.08058  -0.0536  0.0598  1.0000  -4.5102   0.0000   0.0000   0.0000   0.2794
  11.750   1.2479   0.09162   0.08604  -0.0538  0.0603  1.0000  -4.4642   0.0000   0.0000   0.0000   0.2798
  12.000   1.2431   0.09729   0.09181  -0.0540  0.0611  1.0000  -4.4512   0.0000   0.0000   0.0000   0.2798
  12.250   1.1898   0.10471   0.09960  -0.0597  0.0621  1.0000  -4.1913   0.0000   0.0000   0.0000   0.2863
  12.500   1.1246   0.12129   0.11642  -0.0739  0.0672  1.0000  -3.6676   0.0000   0.0000   0.0000   0.3018
  12.750   1.1109   0.13004   0.12518  -0.0788  0.0692  1.0000  -3.5269   0.0000   0.0000   0.0000   0.3069
  13.000   1.1056   0.13706   0.13219  -0.0819  0.0702  1.0000  -3.4546   0.0000   0.0000   0.0000   0.3097
  13.250   1.0915   0.15073   0.14584  -0.0897  0.0807  1.0000  -3.1139   0.0000   0.0000   0.0000   0.3179
  14.500   1.0667   0.19774   0.19268  -0.1209  0.1418  1.0000  -2.1434   0.0000   0.0000   0.0000   0.3487
  14.750   1.0645   0.20098   0.19589  -0.1244  0.1350  1.0000  -2.1008   0.0000   0.0000   0.0000   0.3518
  15.000   1.0793   0.20623   0.20116  -0.1241  0.1317  1.0000  -2.1506   0.0000   0.0000   0.0000   0.3495
  15.500   1.0937   0.21450   0.20944  -0.1272  0.1223  1.0000  -2.1617   0.0000   0.0000   0.0000   0.3501
  16.000   1.0916   0.22099   0.21586  -0.1351  0.1146  1.0000  -2.0457   0.0000   0.0000   0.0000   0.3569
  16.500   1.1036   0.22896   0.22381  -0.1398  0.1084  1.0000  -2.0108   0.0000   0.0000   0.0000   0.3590
  17.000   1.1332   0.23997   0.23487  -0.1393  0.1011  1.0000  -2.1867   0.0000   0.0000   0.0000   0.3545
  17.500   1.1313   0.24396   0.23880  -0.1488  0.0944  1.0000  -2.0573   0.0000   0.0000   0.0000   0.3623
  18.000   1.1456   0.25153   0.24635  -0.1535  0.0882  1.0000  -2.0784   0.0000   0.0000   0.0000   0.3639
  18.500   1.1707   0.26174   0.25661  -0.1539  0.0806  1.0000  -2.2397   0.0000   0.0000   0.0000   0.3604
  19.000   1.1753   0.26576   0.26058  -0.1632  0.0754  1.0000  -2.1132   0.0000   0.0000   0.0000   0.3670
  19.500   1.2048   0.27879   0.27375  -0.1619  0.0707  1.0000  -2.3238   0.0000   0.0000   0.0000   0.3616
  20.000   1.2067   0.28024   0.27513  -0.1730  0.0676  1.0000  -2.1308   0.0000   0.0000   0.0000   0.3696


