xflr5 v6.61

 Calculated polar for: BLD_100

 1 1 Reynolds number fixed          Mach number fixed         

 xtrf =   1.000 (top)        1.000 (bottom)
 Mach =   0.200     Re =     0.080 e 6     Ncrit =   9.000

  alpha     CL        CD       CDp       Cm    Top Xtr Bot Xtr   Cpmin    Chinge    XCp    
 ------- -------- --------- --------- -------- ------- ------- -------- --------- ---------
 -18.500  -0.6421   0.23264   0.22636   0.0287  1.0000  0.0342  -1.5134   0.0000   0.0000   0.0000   0.2852
 -18.000  -0.6236   0.22596   0.21966   0.0254  1.0000  0.0359  -1.4807   0.0000   0.0000   0.0000   0.2814
 -17.500  -0.6054   0.21976   0.21346   0.0216  1.0000  0.0379  -1.4719   0.0000   0.0000   0.0000   0.2769
 -17.000  -0.5879   0.21415   0.20786   0.0175  1.0000  0.0403  -1.4892   0.0000   0.0000   0.0000   0.2712
 -16.500  -0.5754   0.21219   0.20594   0.0118  1.0000  0.0415  -1.5814   0.0000   0.0000   0.0000   0.2625
 -16.000  -0.5564   0.20323   0.19701   0.0090  1.0000  0.0424  -1.5542   0.0000   0.0000   0.0000   0.2584
 -15.500  -0.5363   0.19466   0.18842   0.0071  1.0000  0.0446  -1.4633   0.0000   0.0000   0.0000   0.2557
 -15.000  -0.5193   0.18828   0.18205   0.0040  1.0000  0.0472  -1.4351   0.0000   0.0000   0.0000   0.2505
 -14.500  -0.5039   0.18257   0.17636   0.0004  1.0000  0.0499  -1.4399   0.0000   0.0000   0.0000   0.2438
 -14.000  -0.4962   0.18008   0.17393  -0.0047  1.0000  0.0512  -1.5219   0.0000   0.0000   0.0000   0.2339
 -13.500  -0.4768   0.17043   0.16431  -0.0065  1.0000  0.0525  -1.4933   0.0000   0.0000   0.0000   0.2299
 -13.000  -0.4584   0.16269   0.15656  -0.0080  1.0000  0.0558  -1.4396   0.0000   0.0000   0.0000   0.2263
 -12.500  -0.4455   0.15690   0.15080  -0.0110  1.0000  0.0600  -1.4633   0.0000   0.0000   0.0000   0.2192
 -12.000  -0.4461   0.15513   0.14912  -0.0165  1.0000  0.0617  -1.6037   0.0000   0.0000   0.0000   0.2075
 -11.500  -0.4199   0.14363   0.13763  -0.0159  1.0000  0.0651  -1.4821   0.0000   0.0000   0.0000   0.2065
 -11.000  -0.4074   0.13739   0.13143  -0.0181  1.0000  0.0695  -1.4782   0.0000   0.0000   0.0000   0.2001
 -10.500  -0.4078   0.13432   0.12846  -0.0231  1.0000  0.0723  -1.5936   0.0000   0.0000   0.0000   0.1884
 -10.000  -0.3873   0.12479   0.11895  -0.0229  1.0000  0.0753  -1.5087   0.0000   0.0000   0.0000   0.1857
  -9.750  -0.3802   0.12149   0.11566  -0.0235  1.0000  0.0778  -1.4843   0.0000   0.0000   0.0000   0.1833
  -9.500  -0.3759   0.11868   0.11289  -0.0247  1.0000  0.0806  -1.4893   0.0000   0.0000   0.0000   0.1796
  -9.250  -0.3774   0.11704   0.11132  -0.0271  1.0000  0.0828  -1.5446   0.0000   0.0000   0.0000   0.1736
  -9.000  -0.3848   0.11639   0.11077  -0.0303  1.0000  0.0834  -1.6358   0.0000   0.0000   0.0000   0.1670
  -8.750  -0.3657   0.10975   0.10412  -0.0280  1.0000  0.0859  -1.5128   0.0000   0.0000   0.0000   0.1691
  -8.500  -0.3588   0.10657   0.10096  -0.0279  1.0000  0.0896  -1.4737   0.0000   0.0000   0.0000   0.1678
  -8.250  -0.3599   0.10456   0.09903  -0.0294  1.0000  0.0931  -1.5136   0.0000   0.0000   0.0000   0.1644
  -8.000  -0.3712   0.10394   0.09854  -0.0313  1.0000  0.0943  -1.5994   0.0000   0.0000   0.0000   0.1622
  -7.750  -0.3574   0.09876   0.09338  -0.0296  1.0000  0.0973  -1.5389   0.0000   0.0000   0.0000   0.1636
  -7.500  -0.3547   0.09608   0.09075  -0.0287  1.0000  0.1011  -1.5252   0.0000   0.0000   0.0000   0.1655
  -7.250  -0.3634   0.09462   0.08942  -0.0282  1.0000  0.1040  -1.5637   0.0000   0.0000   0.0000   0.1692
  -7.000  -0.3763   0.09391   0.08885  -0.0314  1.0000  0.1055  -1.6592   0.0000   0.0000   0.0000   0.1639
  -6.500  -0.3670   0.08689   0.08191  -0.0268  1.0000  0.1111  -1.5879   0.0000   0.0000   0.0000   0.1744
  -6.250  -0.3699   0.08482   0.07992  -0.0281  1.0000  0.1152  -1.6209   0.0000   0.0000   0.0000   0.1715
  -5.750  -0.3680   0.07919   0.07440  -0.0281  1.0000  0.1209  -1.6300   0.0000   0.0000   0.0000   0.1714
  -5.500  -0.3638   0.07678   0.07200  -0.0315  1.0000  0.1274  -1.6631   0.0000   0.0000   0.0000   0.1614
  -5.250  -0.3592   0.07344   0.06870  -0.0319  1.0000  0.1305  -1.6604   0.0000   0.0000   0.0000   0.1593
  -5.000  -0.3525   0.07073   0.06600  -0.0313  1.0000  0.1367  -1.6296   0.0000   0.0000   0.0000   0.1593
  -4.750  -0.3433   0.06750   0.06277  -0.0332  1.0000  0.1432  -1.6251   0.0000   0.0000   0.0000   0.1516
  -4.500  -0.3301   0.06436   0.05959  -0.0361  1.0000  0.1534  -1.6168   0.0000   0.0000   0.0000   0.1390
  -4.250  -0.3157   0.06130   0.05649  -0.0381  1.0000  0.1646  -1.5900   0.0000   0.0000   0.0000   0.1278
  -4.000  -0.3000   0.05824   0.05336  -0.0397  1.0000  0.1761  -1.5530   0.0000   0.0000   0.0000   0.1160
  -3.750  -0.2832   0.05521   0.05029  -0.0410  1.0000  0.1882  -1.5059   0.0000   0.0000   0.0000   0.1037
  -3.500  -0.2599   0.05254   0.04747  -0.0442  1.0000  0.2082  -1.4822   0.0000   0.0000   0.0000   0.0782
  -2.750  -0.1130   0.03385   0.02673  -0.0662  1.0000  0.1045  -1.8520   0.0000   0.0000   0.0000  -0.3406
  -2.500  -0.0767   0.03050   0.02289  -0.0686  1.0000  0.1003  -1.8342   0.0000   0.0000   0.0000  -0.6511
  -2.250  -0.0415   0.02807   0.01982  -0.0704  1.0000  0.1027  -1.7922   0.0000   0.0000   0.0000  -1.4600
  -2.000  -0.0069   0.02611   0.01715  -0.0717  1.0000  0.1055  -1.7444   0.0000   0.0000   0.0000  -10.1557
  -1.750   0.0211   0.02501   0.01588  -0.0723  1.0000  0.1153  -1.6487   0.0000   0.0000   0.0000   3.7035
  -1.500   0.0614   0.02384   0.01444  -0.0749  0.9970  0.1299  -1.5321   0.0000   0.0000   0.0000   1.4766
  -1.250   0.1118   0.02285   0.01341  -0.0794  0.9901  0.1580  -1.3563   0.0000   0.0000   0.0000   0.9631
  -1.000   0.1610   0.02203   0.01266  -0.0837  0.9823  0.2084  -1.2005   0.0000   0.0000   0.0000   0.7711
  -0.750   0.2108   0.02110   0.01214  -0.0880  0.9754  0.3134  -1.0257   0.0000   0.0000   0.0000   0.6683
  -0.500   0.2495   0.01880   0.01165  -0.0893  0.9674  1.0000  -0.8856   0.0000   0.0000   0.0000   0.6084
  -0.250   0.2973   0.01918   0.01155  -0.0934  0.9559  1.0000  -0.7112   0.0000   0.0000   0.0000   0.5642
   0.000   0.3419   0.01950   0.01157  -0.0969  0.9437  1.0000  -0.5563   0.0000   0.0000   0.0000   0.5330
   0.250   0.3821   0.01978   0.01164  -0.0994  0.9299  1.0000  -0.5442   0.0000   0.0000   0.0000   0.5097
   0.500   0.4233   0.02000   0.01170  -0.1021  0.9169  1.0000  -0.5698   0.0000   0.0000   0.0000   0.4904
   0.750   0.4646   0.02016   0.01175  -0.1046  0.9043  1.0000  -0.5965   0.0000   0.0000   0.0000   0.4741
   1.000   0.5060   0.02026   0.01177  -0.1070  0.8920  1.0000  -0.6241   0.0000   0.0000   0.0000   0.4603
   1.250   0.5471   0.02031   0.01176  -0.1093  0.8802  1.0000  -0.6527   0.0000   0.0000   0.0000   0.4482
   1.500   0.5857   0.02031   0.01172  -0.1108  0.8682  1.0000  -0.6808   0.0000   0.0000   0.0000   0.4376
   1.750   0.6227   0.02029   0.01170  -0.1120  0.8563  1.0000  -0.7091   0.0000   0.0000   0.0000   0.4280
   2.000   0.6584   0.02026   0.01166  -0.1128  0.8444  1.0000  -0.7379   0.0000   0.0000   0.0000   0.4193
   2.250   0.6928   0.02021   0.01164  -0.1133  0.8325  1.0000  -0.7672   0.0000   0.0000   0.0000   0.4113
   2.500   0.7208   0.02040   0.01188  -0.1129  0.8180  1.0000  -0.7931   0.0000   0.0000   0.0000   0.4042
   2.750   0.7512   0.02049   0.01201  -0.1127  0.8049  1.0000  -0.8225   0.0000   0.0000   0.0000   0.3975
   3.000   0.7817   0.02057   0.01214  -0.1125  0.7922  1.0000  -0.8726   0.0000   0.0000   0.0000   0.3911
   3.250   0.8118   0.02065   0.01232  -0.1122  0.7797  1.0000  -0.9889   0.0000   0.0000   0.0000   0.3852
   3.500   0.8417   0.02075   0.01249  -0.1118  0.7673  1.0000  -1.1239   0.0000   0.0000   0.0000   0.3796
   3.750   0.8712   0.02086   0.01269  -0.1113  0.7549  1.0000  -1.2738   0.0000   0.0000   0.0000   0.3743
   4.000   0.9006   0.02098   0.01294  -0.1108  0.7426  1.0000  -1.4354   0.0000   0.0000   0.0000   0.3693
   4.250   0.9256   0.02138   0.01348  -0.1098  0.7279  1.0000  -1.5996   0.0000   0.0000   0.0000   0.3648
   4.500   0.9524   0.02167   0.01391  -0.1090  0.7139  1.0000  -1.7884   0.0000   0.0000   0.0000   0.3603
   4.750   0.9805   0.02186   0.01428  -0.1081  0.7001  1.0000  -2.0015   0.0000   0.0000   0.0000   0.3559
   5.000   1.0099   0.02192   0.01448  -0.1072  0.6861  1.0000  -2.2284   0.0000   0.0000   0.0000   0.3515
   5.250   1.0353   0.02155   0.01422  -0.1047  0.6608  1.0000  -2.4522   0.0000   0.0000   0.0000   0.3462
   5.500   1.0605   0.02025   0.01281  -0.1005  0.6179  1.0000  -2.7090   0.0000   0.0000   0.0000   0.3395
   5.750   1.0806   0.01989   0.01252  -0.0971  0.5770  1.0000  -2.9460   0.0000   0.0000   0.0000   0.3343
   6.000   1.0991   0.01969   0.01234  -0.0936  0.5300  1.0000  -3.1708   0.0000   0.0000   0.0000   0.3293
   6.250   1.1091   0.01974   0.01227  -0.0887  0.4443  1.0000  -3.3348   0.0000   0.0000   0.0000   0.3238
   6.500   1.0938   0.02276   0.01345  -0.0815  0.1797  1.0000  -3.3353   0.0000   0.0000   0.0000   0.3179
   6.750   1.0940   0.02585   0.01587  -0.0774  0.1209  1.0000  -3.3722   0.0000   0.0000   0.0000   0.3139
   7.000   1.1022   0.02801   0.01790  -0.0742  0.1013  1.0000  -3.4605   0.0000   0.0000   0.0000   0.3102
   7.250   1.1151   0.03003   0.01987  -0.0714  0.0891  1.0000  -3.5912   0.0000   0.0000   0.0000   0.3067
   7.500   1.1359   0.03221   0.02196  -0.0697  0.0794  1.0000  -3.7484   0.0000   0.0000   0.0000   0.3037
   7.750   1.1666   0.03494   0.02463  -0.0692  0.0727  1.0000  -3.9212   0.0000   0.0000   0.0000   0.3014
   8.000   1.1966   0.03781   0.02750  -0.0690  0.0663  1.0000  -4.1048   0.0000   0.0000   0.0000   0.2994
   8.250   1.2262   0.04134   0.03139  -0.0684  0.0643  1.0000  -4.2137   0.0000   0.0000   0.0000   0.2972
   8.500   1.2457   0.04440   0.03498  -0.0664  0.0621  1.0000  -4.2835   0.0000   0.0000   0.0000   0.2945
   8.750   1.2609   0.04770   0.03874  -0.0643  0.0602  1.0000  -4.3510   0.0000   0.0000   0.0000   0.2919
   9.000   1.2723   0.05156   0.04312  -0.0618  0.0604  1.0000  -4.4041   0.0000   0.0000   0.0000   0.2892
   9.250   1.2789   0.05574   0.04780  -0.0591  0.0614  1.0000  -4.4257   0.0000   0.0000   0.0000   0.2866
   9.500   1.2806   0.06008   0.05258  -0.0563  0.0627  1.0000  -4.4309   0.0000   0.0000   0.0000   0.2841
   9.750   1.2817   0.06471   0.05754  -0.0539  0.0640  1.0000  -4.4445   0.0000   0.0000   0.0000   0.2820
  10.000   1.2873   0.07011   0.06312  -0.0524  0.0651  1.0000  -4.4837   0.0000   0.0000   0.0000   0.2804
  10.250   1.2541   0.07262   0.06635  -0.0470  0.0680  1.0000  -4.3051   0.0000   0.0000   0.0000   0.2769
  10.500   1.2250   0.07661   0.07069  -0.0436  0.0700  1.0000  -4.1844   0.0000   0.0000   0.0000   0.2748
  10.750   1.2015   0.08117   0.07548  -0.0421  0.0715  1.0000  -4.1001   0.0000   0.0000   0.0000   0.2739
  11.000   1.1812   0.08623   0.08070  -0.0418  0.0729  1.0000  -4.0306   0.0000   0.0000   0.0000   0.2740
  11.250   1.1883   0.09203   0.08656  -0.0415  0.0760  1.0000  -4.0635   0.0000   0.0000   0.0000   0.2733
  11.500   1.1366   0.09823   0.09305  -0.0452  0.0772  1.0000  -3.8217   0.0000   0.0000   0.0000   0.2779
  11.750   1.0973   0.10713   0.10210  -0.0519  0.0780  1.0000  -3.5961   0.0000   0.0000   0.0000   0.2851
  12.000   1.0573   0.11988   0.11490  -0.0623  0.0805  1.0000  -3.2655   0.0000   0.0000   0.0000   0.2966
  12.250   1.0304   0.13486   0.12980  -0.0730  0.0916  1.0000  -2.8728   0.0000   0.0000   0.0000   0.3087
  12.500   0.8926   0.13172   0.12684  -0.0544  0.0836  1.0000  -2.6864   0.0000   0.0000   0.0000   0.2992


