xflr5 v6.61

 Calculated polar for: BLD_75

 1 1 Reynolds number fixed          Mach number fixed         

 xtrf =   1.000 (top)        1.000 (bottom)
 Mach =   0.200     Re =     0.025 e 6     Ncrit =   7.000

  alpha     CL        CD       CDp       Cm    Top Xtr Bot Xtr   Cpmin    Chinge    XCp    
 ------- -------- --------- --------- -------- ------- ------- -------- --------- ---------
 -27.000  -0.9046   0.33047   0.31931   0.0902  1.0000  0.0579  -1.6563   0.0000   0.0000   0.0000   0.3302
 -26.500  -0.8885   0.32438   0.31317   0.0857  1.0000  0.0604  -1.6308   0.0000   0.0000   0.0000   0.3277
 -26.000  -0.8725   0.31946   0.30822   0.0808  1.0000  0.0629  -1.6183   0.0000   0.0000   0.0000   0.3246
 -25.500  -0.8568   0.31572   0.30445   0.0756  1.0000  0.0648  -1.6169   0.0000   0.0000   0.0000   0.3211
 -25.000  -0.8418   0.31397   0.30269   0.0702  1.0000  0.0658  -1.6277   0.0000   0.0000   0.0000   0.3170
 -24.500  -0.8238   0.30475   0.29342   0.0663  1.0000  0.0674  -1.5821   0.0000   0.0000   0.0000   0.3146
 -24.000  -0.8064   0.29800   0.28664   0.0621  1.0000  0.0703  -1.5408   0.0000   0.0000   0.0000   0.3119
 -23.500  -0.7896   0.29308   0.28170   0.0575  1.0000  0.0732  -1.5167   0.0000   0.0000   0.0000   0.3083
 -23.000  -0.7741   0.29045   0.27906   0.0524  1.0000  0.0753  -1.5116   0.0000   0.0000   0.0000   0.3039
 -22.500  -0.7569   0.28411   0.27275   0.0482  1.0000  0.0768  -1.4800   0.0000   0.0000   0.0000   0.3004
 -22.000  -0.7380   0.27607   0.26463   0.0447  1.0000  0.0807  -1.4407   0.0000   0.0000   0.0000   0.2977
 -21.500  -0.7214   0.27165   0.26020   0.0402  1.0000  0.0848  -1.4510   0.0000   0.0000   0.0000   0.2935
 -21.000  -0.7083   0.27119   0.25977   0.0350  1.0000  0.0866  -1.4960   0.0000   0.0000   0.0000   0.2879
 -20.500  -0.6861   0.25936   0.24794   0.0324  1.0000  0.0912  -1.4453   0.0000   0.0000   0.0000   0.2860
 -20.000  -0.6698   0.25497   0.24355   0.0283  1.0000  0.0956  -1.4540   0.0000   0.0000   0.0000   0.2814
 -19.500  -0.6554   0.25188   0.24053   0.0238  1.0000  0.0975  -1.4796   0.0000   0.0000   0.0000   0.2760
 -19.000  -0.6342   0.24231   0.23088   0.0211  1.0000  0.1026  -1.4381   0.0000   0.0000   0.0000   0.2733
 -18.500  -0.6196   0.23885   0.22745   0.0170  1.0000  0.1070  -1.4512   0.0000   0.0000   0.0000   0.2679
 -18.000  -0.6011   0.23141   0.22005   0.0139  1.0000  0.1103  -1.4315   0.0000   0.0000   0.0000   0.2638
 -17.500  -0.5841   0.22570   0.21435   0.0106  1.0000  0.1163  -1.4151   0.0000   0.0000   0.0000   0.2593
 -17.000  -0.5692   0.22072   0.20944   0.0071  1.0000  0.1201  -1.4135   0.0000   0.0000   0.0000   0.2540
 -16.500  -0.5519   0.21444   0.20318   0.0043  1.0000  0.1278  -1.3851   0.0000   0.0000   0.0000   0.2495
 -16.000  -0.5349   0.20779   0.19658   0.0016  1.0000  0.1334  -1.3584   0.0000   0.0000   0.0000   0.2449
 -15.500  -0.5242   0.20472   0.19351  -0.0018  1.0000  0.1400  -1.3607   0.0000   0.0000   0.0000   0.2390
 -15.000  -0.5040   0.19619   0.18502  -0.0038  1.0000  0.1478  -1.3075   0.0000   0.0000   0.0000   0.2351
 -14.500  -0.4903   0.19063   0.17953  -0.0064  1.0000  0.1538  -1.2971   0.0000   0.0000   0.0000   0.2298
 -14.000  -0.4802   0.18656   0.17554  -0.0090  1.0000  0.1618  -1.3203   0.0000   0.0000   0.0000   0.2244
 -13.500  -0.4620   0.17877   0.16779  -0.0106  1.0000  0.1708  -1.3104   0.0000   0.0000   0.0000   0.2202
 -13.000  -0.4475   0.17229   0.16140  -0.0124  1.0000  0.1792  -1.3129   0.0000   0.0000   0.0000   0.2156
 -12.500  -0.4353   0.16640   0.15559  -0.0142  1.0000  0.1884  -1.3201   0.0000   0.0000   0.0000   0.2110
 -12.000  -0.4231   0.16037   0.14966  -0.0156  1.0000  0.2005  -1.3213   0.0000   0.0000   0.0000   0.2069
 -11.500  -0.4136   0.15497   0.14427  -0.0168  1.0000  0.2148  -1.3259   0.0000   0.0000   0.0000   0.2034
 -11.000  -0.4100   0.15081   0.14024  -0.0180  1.0000  0.2280  -1.3448   0.0000   0.0000   0.0000   0.2003
 -10.500  -0.3915   0.14268   0.13221  -0.0181  1.0000  0.2462  -1.3134   0.0000   0.0000   0.0000   0.1979
 -10.000  -0.3908   0.13870   0.12840  -0.0188  1.0000  0.2609  -1.3307   0.0000   0.0000   0.0000   0.1964
  -9.500  -0.3750   0.13122   0.12101  -0.0185  1.0000  0.2806  -1.3007   0.0000   0.0000   0.0000   0.1953
  -9.000  -0.3649   0.12499   0.11492  -0.0180  1.0000  0.3008  -1.2821   0.0000   0.0000   0.0000   0.1954
  -8.500  -0.3590   0.11946   0.10956  -0.0170  1.0000  0.3241  -1.2672   0.0000   0.0000   0.0000   0.1976
  -8.000  -0.3550   0.11408   0.10438  -0.0154  1.0000  0.3500  -1.2509   0.0000   0.0000   0.0000   0.2020
  -7.500  -0.3491   0.10835   0.09884  -0.0128  1.0000  0.3828  -1.2407   0.0000   0.0000   0.0000   0.2088
  -7.000  -0.3451   0.10290   0.09351  -0.0091  1.0000  0.4248  -1.2412   0.0000   0.0000   0.0000   0.2195
  -6.500  -0.3284   0.09573   0.08648  -0.0048  1.0000  0.4836  -1.2194   0.0000   0.0000   0.0000   0.2310
  -5.500  -0.1250   0.06512   0.05532  -0.0127  1.0000  0.9207  -0.9864   0.0000   0.0000   0.0000   0.1366
  -5.000  -0.1788   0.06642   0.05709  -0.0008  1.0000  0.8452  -1.0426   0.0000   0.0000   0.0000   0.2387
  -4.500  -0.2598   0.06941   0.06072   0.0108  1.0000  0.7254  -1.1389   0.0000   0.0000   0.0000   0.2876
  -4.000  -0.2971   0.06947   0.06086  -0.0337  1.0000  0.2592  -1.5546   0.0000   0.0000   0.0000   0.1342
  -3.500  -0.2237   0.05907   0.04983  -0.0519  1.0000  0.1910  -1.6675   0.0000   0.0000   0.0000   0.0151
  -3.000  -0.1440   0.04994   0.03977  -0.0660  1.0000  0.1724  -1.7073   0.0000   0.0000   0.0000  -0.2127
  -2.500  -0.0727   0.04335   0.03232  -0.0737  1.0000  0.1826  -1.6485   0.0000   0.0000   0.0000  -0.7704
  -2.000  -0.0003   0.03831   0.02619  -0.0794  1.0000  0.2084  -1.5794   0.0000   0.0000   0.0000  -247.5569
  -1.500   0.0687   0.03488   0.02182  -0.0827  1.0000  0.2579  -1.4326   0.0000   0.0000   0.0000   1.4602
  -1.000   0.1328   0.03219   0.01870  -0.0844  1.0000  0.3450  -1.2444   0.0000   0.0000   0.0000   0.8882
  -0.500   0.1876   0.02817   0.01648  -0.0829  1.0000  0.6518  -1.0831   0.0000   0.0000   0.0000   0.6930
   0.000   0.2242   0.02835   0.01541  -0.0809  1.0000  1.0000  -0.9257   0.0000   0.0000   0.0000   0.6105
   0.500   0.2693   0.02979   0.01595  -0.0811  1.0000  1.0000  -0.6893   0.0000   0.0000   0.0000   0.5505
   1.000   0.3111   0.03150   0.01705  -0.0814  1.0000  1.0000  -0.4975   0.0000   0.0000   0.0000   0.5104
   1.500   0.3503   0.03351   0.01867  -0.0818  1.0000  1.0000  -0.5220   0.0000   0.0000   0.0000   0.4816
   2.000   0.3873   0.03583   0.02072  -0.0823  1.0000  1.0000  -0.5464   0.0000   0.0000   0.0000   0.4602
   2.500   0.4224   0.03844   0.02319  -0.0830  1.0000  1.0000  -0.5712   0.0000   0.0000   0.0000   0.4437
   3.000   0.4965   0.04198   0.02664  -0.0910  0.9744  1.0000  -0.6251   0.0000   0.0000   0.0000   0.4302
   3.500   0.5773   0.04547   0.03019  -0.0996  0.9396  1.0000  -0.6935   0.0000   0.0000   0.0000   0.4188
   4.000   0.6430   0.04869   0.03363  -0.1049  0.9038  1.0000  -0.7647   0.0000   0.0000   0.0000   0.4090
   4.500   0.7078   0.05192   0.03715  -0.1094  0.8682  1.0000  -0.8588   0.0000   0.0000   0.0000   0.4001
   5.000   0.7672   0.05515   0.04081  -0.1126  0.8316  1.0000  -0.9996   0.0000   0.0000   0.0000   0.3918
   5.500   0.8228   0.05839   0.04453  -0.1146  0.7930  1.0000  -1.2208   0.0000   0.0000   0.0000   0.3839
   6.000   0.8729   0.06169   0.04844  -0.1152  0.7518  1.0000  -1.4657   0.0000   0.0000   0.0000   0.3761
   6.500   0.9296   0.06462   0.05205  -0.1154  0.7059  1.0000  -1.7778   0.0000   0.0000   0.0000   0.3678
   7.000   0.9863   0.06685   0.05520  -0.1134  0.6515  1.0000  -2.1270   0.0000   0.0000   0.0000   0.3582
   8.000   1.1932   0.04708   0.03689  -0.0804  0.3244  1.0000  -3.5444   0.0000   0.0000   0.0000   0.3089
   8.500   1.2041   0.05235   0.04118  -0.0720  0.2242  1.0000  -3.6435   0.0000   0.0000   0.0000   0.3007
   9.000   1.2267   0.05915   0.04775  -0.0676  0.1737  1.0000  -3.7809   0.0000   0.0000   0.0000   0.2953
   9.500   1.2448   0.06749   0.05672  -0.0644  0.1510  1.0000  -3.8995   0.0000   0.0000   0.0000   0.2914
  10.500   1.2252   0.08519   0.07550  -0.0582  0.1318  1.0000  -3.9317   0.0000   0.0000   0.0000   0.2862
  11.000   1.1801   0.09712   0.08798  -0.0595  0.1330  1.0000  -3.7413   0.0000   0.0000   0.0000   0.2886
  12.000   1.0723   0.13565   0.12669  -0.0829  0.1512  1.0000  -2.9477   0.0000   0.0000   0.0000   0.3149
  12.500   1.0567   0.15017   0.14109  -0.0908  0.1510  1.0000  -2.7626   0.0000   0.0000   0.0000   0.3232
  13.000   1.0492   0.16286   0.15367  -0.0977  0.1501  1.0000  -2.6262   0.0000   0.0000   0.0000   0.3300
  13.500   1.0508   0.17456   0.16532  -0.1035  0.1515  1.0000  -2.5340   0.0000   0.0000   0.0000   0.3349
  14.000   1.0504   0.18672   0.17742  -0.1111  0.1602  1.0000  -2.3937   0.0000   0.0000   0.0000   0.3416
  14.500   1.0533   0.19875   0.18941  -0.1190  0.1797  1.0000  -2.2528   0.0000   0.0000   0.0000   0.3484
  15.000   1.0483   0.21610   0.20680  -0.1362  0.3051  1.0000  -1.9378   0.0000   0.0000   0.0000   0.3650
  15.500   1.0624   0.22460   0.21533  -0.1404  0.3046  1.0000  -1.9269   0.0000   0.0000   0.0000   0.3665
  16.000   1.0738   0.23157   0.22229  -0.1445  0.2992  1.0000  -1.9092   0.0000   0.0000   0.0000   0.3682
  16.500   1.0894   0.23884   0.22958  -0.1479  0.2866  1.0000  -1.9083   0.0000   0.0000   0.0000   0.3686
  17.000   1.1105   0.24786   0.23863  -0.1504  0.2701  1.0000  -1.9261   0.0000   0.0000   0.0000   0.3675
  17.500   1.1231   0.25362   0.24438  -0.1544  0.2574  1.0000  -1.9090   0.0000   0.0000   0.0000   0.3687
  18.000   1.1400   0.26111   0.25189  -0.1581  0.2472  1.0000  -1.9003   0.0000   0.0000   0.0000   0.3691
  18.500   1.1569   0.26850   0.25930  -0.1619  0.2369  1.0000  -1.9229   0.0000   0.0000   0.0000   0.3695
  19.000   1.1742   0.27593   0.26675  -0.1657  0.2266  1.0000  -1.9581   0.0000   0.0000   0.0000   0.3698
  19.500   1.1909   0.28300   0.27384  -0.1697  0.2160  1.0000  -1.9876   0.0000   0.0000   0.0000   0.3702
  20.000   1.2059   0.28882   0.27979  -0.1740  0.2045  1.0000  -2.0058   0.0000   0.0000   0.0000   0.3711


