xflr5 v6.61

 Calculated polar for: BLD_25

 1 1 Reynolds number fixed          Mach number fixed         

 xtrf =   1.000 (top)        1.000 (bottom)
 Mach =   0.200     Re =     0.070 e 6     Ncrit =   9.000

  alpha     CL        CD       CDp       Cm    Top Xtr Bot Xtr   Cpmin    Chinge    XCp    
 ------- -------- --------- --------- -------- ------- ------- -------- --------- ---------
 -19.000  -0.5757   0.23507   0.22791   0.0045  1.0000  0.0387  -1.4113   0.0000   0.0000   0.0000   0.2467
 -18.500  -0.5595   0.22895   0.22180   0.0020  1.0000  0.0403  -1.3679   0.0000   0.0000   0.0000   0.2429
 -18.000  -0.5439   0.22334   0.21618  -0.0006  1.0000  0.0422  -1.3415   0.0000   0.0000   0.0000   0.2385
 -17.500  -0.5288   0.21812   0.21098  -0.0035  1.0000  0.0443  -1.3294   0.0000   0.0000   0.0000   0.2334
 -17.000  -0.5171   0.21560   0.20851  -0.0073  1.0000  0.0458  -1.3682   0.0000   0.0000   0.0000   0.2262
 -16.500  -0.5049   0.21066   0.20364  -0.0102  1.0000  0.0465  -1.3730   0.0000   0.0000   0.0000   0.2205
 -16.000  -0.4850   0.20093   0.19391  -0.0107  1.0000  0.0485  -1.2755   0.0000   0.0000   0.0000   0.2187
 -15.500  -0.4702   0.19505   0.18806  -0.0126  1.0000  0.0508  -1.2676   0.0000   0.0000   0.0000   0.2143
 -15.000  -0.4566   0.18960   0.18265  -0.0147  1.0000  0.0534  -1.2825   0.0000   0.0000   0.0000   0.2091
 -14.500  -0.4466   0.18582   0.17893  -0.0176  1.0000  0.0553  -1.3416   0.0000   0.0000   0.0000   0.2023
 -14.000  -0.4447   0.18486   0.17802  -0.0211  1.0000  0.0559  -1.4461   0.0000   0.0000   0.0000   0.1949
 -13.500  -0.4193   0.17245   0.16563  -0.0201  1.0000  0.0583  -1.3271   0.0000   0.0000   0.0000   0.1940
 -13.000  -0.4064   0.16655   0.15976  -0.0213  1.0000  0.0613  -1.3117   0.0000   0.0000   0.0000   0.1900
 -12.500  -0.3969   0.16163   0.15491  -0.0230  1.0000  0.0645  -1.3353   0.0000   0.0000   0.0000   0.1845
 -12.000  -0.3970   0.15961   0.15299  -0.0259  1.0000  0.0657  -1.4273   0.0000   0.0000   0.0000   0.1777
 -11.500  -0.3769   0.14989   0.14331  -0.0251  1.0000  0.0681  -1.3376   0.0000   0.0000   0.0000   0.1763
 -11.000  -0.3661   0.14413   0.13762  -0.0256  1.0000  0.0719  -1.3113   0.0000   0.0000   0.0000   0.1733
 -10.500  -0.3665   0.14130   0.13490  -0.0277  1.0000  0.0753  -1.3772   0.0000   0.0000   0.0000   0.1681
 -10.000  -0.3518   0.13339   0.12706  -0.0269  1.0000  0.0786  -1.3107   0.0000   0.0000   0.0000   0.1672
  -9.750  -0.3468   0.13054   0.12420  -0.0267  1.0000  0.0814  -1.2878   0.0000   0.0000   0.0000   0.1668
  -9.500  -0.3450   0.12835   0.12206  -0.0270  1.0000  0.0841  -1.2930   0.0000   0.0000   0.0000   0.1657
  -9.250  -0.3492   0.12742   0.12121  -0.0280  1.0000  0.0858  -1.3368   0.0000   0.0000   0.0000   0.1643
  -9.000  -0.3582   0.12732   0.12122  -0.0290  1.0000  0.0864  -1.4005   0.0000   0.0000   0.0000   0.1639
  -8.750  -0.3396   0.12066   0.11456  -0.0271  1.0000  0.0887  -1.2943   0.0000   0.0000   0.0000   0.1649
  -8.500  -0.3348   0.11779   0.11173  -0.0264  1.0000  0.0914  -1.2726   0.0000   0.0000   0.0000   0.1659
  -8.250  -0.3346   0.11565   0.10966  -0.0261  1.0000  0.0942  -1.2883   0.0000   0.0000   0.0000   0.1669
  -8.000  -0.3415   0.11470   0.10881  -0.0262  1.0000  0.0963  -1.3373   0.0000   0.0000   0.0000   0.1685
  -7.750  -0.3554   0.11474   0.10897  -0.0260  1.0000  0.0969  -1.4049   0.0000   0.0000   0.0000   0.1726
  -7.500  -0.3392   0.10908   0.10333  -0.0244  1.0000  0.0993  -1.3487   0.0000   0.0000   0.0000   0.1736
  -7.250  -0.3365   0.10645   0.10076  -0.0231  1.0000  0.1022  -1.3380   0.0000   0.0000   0.0000   0.1773
  -7.000  -0.3419   0.10486   0.09925  -0.0218  1.0000  0.1050  -1.3590   0.0000   0.0000   0.0000   0.1824
  -6.750  -0.3561   0.10440   0.09892  -0.0204  1.0000  0.1068  -1.4086   0.0000   0.0000   0.0000   0.1892
  -6.500  -0.3683   0.10414   0.09880  -0.0230  1.0000  0.1077  -1.4934   0.0000   0.0000   0.0000   0.1844
  -6.250  -0.3554   0.09888   0.09355  -0.0183  1.0000  0.1105  -1.4154   0.0000   0.0000   0.0000   0.1954
  -6.000  -0.3541   0.09645   0.09119  -0.0173  1.0000  0.1140  -1.4111   0.0000   0.0000   0.0000   0.1983
  -5.750  -0.3575   0.09492   0.08975  -0.0197  1.0000  0.1178  -1.4615   0.0000   0.0000   0.0000   0.1921
  -5.250  -0.3505   0.08900   0.08395  -0.0181  1.0000  0.1233  -1.4476   0.0000   0.0000   0.0000   0.1956
  -5.000  -0.3422   0.08693   0.08192  -0.0263  1.0000  0.1293  -1.5192   0.0000   0.0000   0.0000   0.1707
  -4.750  -0.3385   0.08341   0.07847  -0.0227  1.0000  0.1317  -1.4813   0.0000   0.0000   0.0000   0.1806
  -4.500  -0.3295   0.08065   0.07574  -0.0236  1.0000  0.1378  -1.4707   0.0000   0.0000   0.0000   0.1759
  -4.250  -0.3170   0.07732   0.07244  -0.0270  1.0000  0.1427  -1.4798   0.0000   0.0000   0.0000   0.1624
  -4.000  -0.2945   0.07392   0.06896  -0.0345  1.0000  0.1520  -1.4991   0.0000   0.0000   0.0000   0.1306
  -3.500  -0.2599   0.06758   0.06264  -0.0392  1.0000  0.1743  -1.4492   0.0000   0.0000   0.0000   0.0965
  -3.250  -0.2438   0.06460   0.05967  -0.0400  1.0000  0.1866  -1.4097   0.0000   0.0000   0.0000   0.0834
  -3.000  -0.2225   0.06157   0.05664  -0.0422  1.0000  0.2000  -1.3726   0.0000   0.0000   0.0000   0.0576
  -2.750  -0.1886   0.05804   0.05304  -0.0488  1.0000  0.2190  -1.3425   0.0000   0.0000   0.0000  -0.0116
  -2.250   0.0468   0.03563   0.02821  -0.1012  1.0000  0.0970  -1.7504   0.0000   0.0000   0.0000   2.4254
  -2.000   0.0956   0.03220   0.02432  -0.1064  1.0000  0.0945  -1.7193   0.0000   0.0000   0.0000   1.3695
  -1.750   0.1518   0.02906   0.02014  -0.1121  1.0000  0.0970  -1.7486   0.0000   0.0000   0.0000   0.9923
  -1.500   0.1888   0.02772   0.01869  -0.1144  1.0000  0.1127  -1.6698   0.0000   0.0000   0.0000   0.8585
  -1.250   0.2192   0.02744   0.01831  -0.1157  1.0000  0.1503  -1.5582   0.0000   0.0000   0.0000   0.7795
  -1.000   0.2541   0.02662   0.01741  -0.1173  1.0000  0.1772  -1.4458   0.0000   0.0000   0.0000   0.7130
  -0.750   0.2891   0.02601   0.01674  -0.1190  1.0000  0.2085  -1.3105   0.0000   0.0000   0.0000   0.6622
  -0.500   0.3224   0.02571   0.01659  -0.1205  1.0000  0.2633  -1.1544   0.0000   0.0000   0.0000   0.6241
  -0.250   0.3566   0.02543   0.01658  -0.1222  1.0000  0.3550  -1.0186   0.0000   0.0000   0.0000   0.5925
   0.000   0.4021   0.02420   0.01664  -0.1251  1.0000  0.6491  -0.8481   0.0000   0.0000   0.0000   0.5608
   0.250   0.4016   0.02422   0.01692  -0.1204  1.0000  1.0000  -0.7939   0.0000   0.0000   0.0000   0.5491
   0.500   0.4286   0.02518   0.01754  -0.1216  0.9979  1.0000  -0.6624   0.0000   0.0000   0.0000   0.5327
   0.750   0.4811   0.02610   0.01811  -0.1272  0.9839  1.0000  -0.5879   0.0000   0.0000   0.0000   0.5130
   1.000   0.5327   0.02680   0.01857  -0.1323  0.9703  1.0000  -0.6282   0.0000   0.0000   0.0000   0.4968
   1.250   0.5774   0.02728   0.01891  -0.1360  0.9543  1.0000  -0.6668   0.0000   0.0000   0.0000   0.4838
   1.500   0.6281   0.02761   0.01911  -0.1405  0.9408  1.0000  -0.7135   0.0000   0.0000   0.0000   0.4717
   1.750   0.6685   0.02783   0.01927  -0.1430  0.9236  1.0000  -0.7546   0.0000   0.0000   0.0000   0.4616
   2.000   0.7177   0.02783   0.01922  -0.1467  0.9097  1.0000  -0.8068   0.0000   0.0000   0.0000   0.4519
   2.250   0.7561   0.02783   0.01922  -0.1484  0.8919  1.0000  -0.8556   0.0000   0.0000   0.0000   0.4434
   2.500   0.8052   0.02744   0.01887  -0.1514  0.8779  1.0000  -0.9204   0.0000   0.0000   0.0000   0.4350
   2.750   0.8429   0.02718   0.01864  -0.1523  0.8597  1.0000  -0.9761   0.0000   0.0000   0.0000   0.4275
   3.000   0.8920   0.02633   0.01787  -0.1546  0.8460  1.0000  -1.0500   0.0000   0.0000   0.0000   0.4198
   3.250   0.9299   0.02574   0.01738  -0.1550  0.8279  1.0000  -1.1172   0.0000   0.0000   0.0000   0.4129
   3.500   0.9818   0.02452   0.01627  -0.1571  0.8138  1.0000  -1.2090   0.0000   0.0000   0.0000   0.4061
   3.750   1.0225   0.02370   0.01554  -0.1575  0.7941  1.0000  -1.2999   0.0000   0.0000   0.0000   0.3998
   4.000   1.0655   0.02277   0.01476  -0.1581  0.7729  1.0000  -1.4156   0.0000   0.0000   0.0000   0.3938
   4.250   1.1094   0.02189   0.01395  -0.1588  0.7491  1.0000  -1.5355   0.0000   0.0000   0.0000   0.3883
   4.500   1.1440   0.02153   0.01362  -0.1581  0.7195  1.0000  -1.6409   0.0000   0.0000   0.0000   0.3831
   4.750   1.1777   0.02131   0.01340  -0.1573  0.6872  1.0000  -1.8092   0.0000   0.0000   0.0000   0.3782
   5.000   1.2082   0.02133   0.01344  -0.1561  0.6526  1.0000  -1.9798   0.0000   0.0000   0.0000   0.3735
   5.250   1.2351   0.02159   0.01363  -0.1545  0.6162  1.0000  -2.1431   0.0000   0.0000   0.0000   0.3690
   5.500   1.2589   0.02203   0.01399  -0.1524  0.5784  1.0000  -2.3012   0.0000   0.0000   0.0000   0.3647
   5.750   1.2818   0.02259   0.01442  -0.1503  0.5400  1.0000  -2.4856   0.0000   0.0000   0.0000   0.3606
   6.000   1.3021   0.02328   0.01500  -0.1479  0.5005  1.0000  -2.6630   0.0000   0.0000   0.0000   0.3566
   6.250   1.3210   0.02408   0.01568  -0.1453  0.4608  1.0000  -2.8374   0.0000   0.0000   0.0000   0.3527
   6.500   1.3394   0.02498   0.01641  -0.1428  0.4219  1.0000  -3.0124   0.0000   0.0000   0.0000   0.3489
   6.750   1.3552   0.02600   0.01733  -0.1399  0.3827  1.0000  -3.1765   0.0000   0.0000   0.0000   0.3452
   7.000   1.3704   0.02706   0.01833  -0.1371  0.3451  1.0000  -3.3419   0.0000   0.0000   0.0000   0.3416
   7.250   1.3813   0.02813   0.01931  -0.1336  0.3070  1.0000  -3.4910   0.0000   0.0000   0.0000   0.3380
   7.500   1.3911   0.02926   0.02030  -0.1302  0.2716  1.0000  -3.6379   0.0000   0.0000   0.0000   0.3345
   7.750   1.4003   0.03053   0.02146  -0.1268  0.2388  1.0000  -3.7790   0.0000   0.0000   0.0000   0.3312
   8.000   1.4089   0.03196   0.02282  -0.1235  0.2084  1.0000  -3.9112   0.0000   0.0000   0.0000   0.3279
   8.250   1.4160   0.03353   0.02429  -0.1200  0.1802  1.0000  -4.0319   0.0000   0.0000   0.0000   0.3246
   8.500   1.4245   0.03547   0.02618  -0.1167  0.1542  1.0000  -4.1346   0.0000   0.0000   0.0000   0.3215
   8.750   1.4313   0.03754   0.02815  -0.1134  0.1313  1.0000  -4.2213   0.0000   0.0000   0.0000   0.3184
   9.000   1.4423   0.04008   0.03068  -0.1105  0.1118  1.0000  -4.3143   0.0000   0.0000   0.0000   0.3154
   9.250   1.4613   0.04314   0.03364  -0.1088  0.0973  1.0000  -4.4330   0.0000   0.0000   0.0000   0.3129
   9.500   1.4853   0.04653   0.03709  -0.1079  0.0879  1.0000  -4.5624   0.0000   0.0000   0.0000   0.3107
   9.750   1.4990   0.05004   0.04115  -0.1054  0.0830  1.0000  -4.6232   0.0000   0.0000   0.0000   0.3080
  10.000   1.5192   0.05355   0.04473  -0.1045  0.0779  1.0000  -4.7712   0.0000   0.0000   0.0000   0.3062
  10.250   1.5139   0.05670   0.04852  -0.1000  0.0755  1.0000  -4.7777   0.0000   0.0000   0.0000   0.3031
  10.500   1.5084   0.05978   0.05201  -0.0959  0.0728  1.0000  -4.8051   0.0000   0.0000   0.0000   0.3003
  10.750   1.5093   0.06272   0.05514  -0.0928  0.0701  1.0000  -4.8815   0.0000   0.0000   0.0000   0.2979
  11.000   1.5088   0.06644   0.05907  -0.0900  0.0688  1.0000  -4.9337   0.0000   0.0000   0.0000   0.2957
  11.250   1.5029   0.07071   0.06358  -0.0870  0.0681  1.0000  -4.9621   0.0000   0.0000   0.0000   0.2936
  11.500   1.4861   0.07470   0.06787  -0.0833  0.0679  1.0000  -4.9446   0.0000   0.0000   0.0000   0.2915
  11.750   1.4661   0.07885   0.07233  -0.0802  0.0679  1.0000  -4.9102   0.0000   0.0000   0.0000   0.2898
  12.000   1.4446   0.08334   0.07714  -0.0779  0.0680  1.0000  -4.8643   0.0000   0.0000   0.0000   0.2887
  12.250   1.4117   0.08827   0.08244  -0.0767  0.0686  1.0000  -4.7458   0.0000   0.0000   0.0000   0.2887
  12.500   1.3513   0.09700   0.09169  -0.0796  0.0708  1.0000  -4.4342   0.0000   0.0000   0.0000   0.2930
  12.750   1.3067   0.10718   0.10214  -0.0854  0.0729  1.0000  -4.2007   0.0000   0.0000   0.0000   0.2991
  13.000   1.2730   0.11779   0.11282  -0.0921  0.0753  1.0000  -3.9926   0.0000   0.0000   0.0000   0.3058
  13.250   1.2499   0.12765   0.12274  -0.0983  0.0768  1.0000  -3.8274   0.0000   0.0000   0.0000   0.3119
  13.500   1.2338   0.13686   0.13196  -0.1037  0.0777  1.0000  -3.6876   0.0000   0.0000   0.0000   0.3172
  14.000   1.1424   0.19379   0.18867  -0.1461  0.1729  1.0000  -2.1082   0.0000   0.0000   0.0000   0.3625
  14.500   1.1467   0.20386   0.19872  -0.1517  0.1711  1.0000  -2.0471   0.0000   0.0000   0.0000   0.3663
  15.000   1.1603   0.21249   0.20735  -0.1548  0.1609  1.0000  -2.0572   0.0000   0.0000   0.0000   0.3666
  15.500   1.1691   0.22013   0.21499  -0.1591  0.1501  1.0000  -2.0409   0.0000   0.0000   0.0000   0.3685


