xflr5 v6.61

 Calculated polar for: BLD_25

 1 1 Reynolds number fixed          Mach number fixed         

 xtrf =   1.000 (top)        1.000 (bottom)
 Mach =   0.200     Re =     0.080 e 6     Ncrit =   9.000

  alpha     CL        CD       CDp       Cm    Top Xtr Bot Xtr   Cpmin    Chinge    XCp    
 ------- -------- --------- --------- -------- ------- ------- -------- --------- ---------
 -17.000  -0.5139   0.21194   0.20530  -0.0063  1.0000  0.0388  -1.3427   0.0000   0.0000   0.0000   0.2280
 -16.500  -0.4983   0.20582   0.19921  -0.0082  1.0000  0.0409  -1.2823   0.0000   0.0000   0.0000   0.2241
 -16.000  -0.4837   0.20028   0.19369  -0.0105  1.0000  0.0433  -1.2597   0.0000   0.0000   0.0000   0.2192
 -15.500  -0.4712   0.19592   0.18937  -0.0134  1.0000  0.0454  -1.3100   0.0000   0.0000   0.0000   0.2128
 -15.000  -0.4652   0.19443   0.18795  -0.0171  1.0000  0.0460  -1.4124   0.0000   0.0000   0.0000   0.2049
 -14.500  -0.4458   0.18417   0.17773  -0.0175  1.0000  0.0471  -1.3594   0.0000   0.0000   0.0000   0.2024
 -14.000  -0.4303   0.17725   0.17080  -0.0183  1.0000  0.0492  -1.3153   0.0000   0.0000   0.0000   0.1993
 -13.500  -0.4176   0.17152   0.16511  -0.0197  1.0000  0.0518  -1.3131   0.0000   0.0000   0.0000   0.1948
 -13.000  -0.4071   0.16643   0.16007  -0.0216  1.0000  0.0544  -1.3409   0.0000   0.0000   0.0000   0.1892
 -12.500  -0.4044   0.16398   0.15771  -0.0246  1.0000  0.0557  -1.4343   0.0000   0.0000   0.0000   0.1820
 -12.000  -0.3894   0.15565   0.14944  -0.0248  1.0000  0.0568  -1.3981   0.0000   0.0000   0.0000   0.1790
 -11.500  -0.3749   0.14874   0.14257  -0.0247  1.0000  0.0597  -1.3343   0.0000   0.0000   0.0000   0.1770
 -11.000  -0.3658   0.14332   0.13722  -0.0255  1.0000  0.0629  -1.3285   0.0000   0.0000   0.0000   0.1733
 -10.500  -0.3647   0.13994   0.13393  -0.0276  1.0000  0.0654  -1.3944   0.0000   0.0000   0.0000   0.1680
 -10.000  -0.3577   0.13380   0.12790  -0.0280  1.0000  0.0666  -1.3956   0.0000   0.0000   0.0000   0.1655
  -9.750  -0.3476   0.12964   0.12371  -0.0270  1.0000  0.0688  -1.3249   0.0000   0.0000   0.0000   0.1663
  -9.500  -0.3433   0.12696   0.12106  -0.0268  1.0000  0.0712  -1.3054   0.0000   0.0000   0.0000   0.1659
  -9.250  -0.3420   0.12482   0.11898  -0.0271  1.0000  0.0737  -1.3137   0.0000   0.0000   0.0000   0.1649
  -9.000  -0.3472   0.12403   0.11826  -0.0281  1.0000  0.0752  -1.3667   0.0000   0.0000   0.0000   0.1637
  -8.750  -0.3572   0.12396   0.11830  -0.0290  1.0000  0.0757  -1.4378   0.0000   0.0000   0.0000   0.1638
  -8.500  -0.3375   0.11714   0.11148  -0.0268  1.0000  0.0781  -1.3122   0.0000   0.0000   0.0000   0.1654
  -8.250  -0.3334   0.11440   0.10879  -0.0260  1.0000  0.0807  -1.2924   0.0000   0.0000   0.0000   0.1669
  -8.000  -0.3335   0.11226   0.10671  -0.0256  1.0000  0.0833  -1.3072   0.0000   0.0000   0.0000   0.1685
  -7.750  -0.3396   0.11106   0.10559  -0.0254  1.0000  0.0853  -1.3520   0.0000   0.0000   0.0000   0.1707
  -7.500  -0.3533   0.11089   0.10555  -0.0249  1.0000  0.0861  -1.4194   0.0000   0.0000   0.0000   0.1755
  -7.250  -0.3700   0.11089   0.10567  -0.0239  1.0000  0.0864  -1.4881   0.0000   0.0000   0.0000   0.1818
  -7.000  -0.3438   0.10384   0.09860  -0.0219  1.0000  0.0892  -1.3827   0.0000   0.0000   0.0000   0.1826
  -6.750  -0.3455   0.10172   0.09655  -0.0201  1.0000  0.0916  -1.3808   0.0000   0.0000   0.0000   0.1882
  -6.500  -0.3525   0.10017   0.09509  -0.0184  1.0000  0.0939  -1.4014   0.0000   0.0000   0.0000   0.1944
  -5.750  -0.3581   0.09333   0.08849  -0.0183  1.0000  0.0994  -1.4680   0.0000   0.0000   0.0000   0.1962
  -5.500  -0.3550   0.09077   0.08598  -0.0174  1.0000  0.1026  -1.4560   0.0000   0.0000   0.0000   0.1983
  -5.250  -0.3512   0.08866   0.08393  -0.0224  1.0000  0.1070  -1.5145   0.0000   0.0000   0.0000   0.1837
  -5.000  -0.3451   0.08534   0.08067  -0.0242  1.0000  0.1089  -1.5328   0.0000   0.0000   0.0000   0.1773
  -4.750  -0.3402   0.08250   0.07787  -0.0215  1.0000  0.1121  -1.4904   0.0000   0.0000   0.0000   0.1845
  -4.500  -0.3172   0.07909   0.07445  -0.0336  1.0000  0.1190  -1.5739   0.0000   0.0000   0.0000   0.1416
  -4.250  -0.3159   0.07614   0.07156  -0.0282  1.0000  0.1213  -1.5114   0.0000   0.0000   0.0000   0.1584
  -4.000  -0.2870   0.07230   0.06762  -0.0385  1.0000  0.1301  -1.5507   0.0000   0.0000   0.0000   0.1135
  -3.750  -0.2825   0.06960   0.06498  -0.0345  1.0000  0.1334  -1.4918   0.0000   0.0000   0.0000   0.1255
  -3.500  -0.2549   0.06579   0.06114  -0.0412  1.0000  0.1425  -1.4903   0.0000   0.0000   0.0000   0.0859
  -3.250  -0.2317   0.06257   0.05789  -0.0447  1.0000  0.1540  -1.4575   0.0000   0.0000   0.0000   0.0543
  -3.000  -0.2079   0.05966   0.05496  -0.0477  1.0000  0.1692  -1.4122   0.0000   0.0000   0.0000   0.0178
  -2.250   0.0512   0.03407   0.02701  -0.1022  1.0000  0.0874  -1.7903   0.0000   0.0000   0.0000   2.2562
  -2.000   0.1045   0.03052   0.02279  -0.1080  1.0000  0.0840  -1.7712   0.0000   0.0000   0.0000   1.2896
  -1.750   0.1571   0.02777   0.01910  -0.1129  1.0000  0.0862  -1.7841   0.0000   0.0000   0.0000   0.9720
  -1.500   0.1987   0.02615   0.01717  -0.1157  1.0000  0.0980  -1.7303   0.0000   0.0000   0.0000   0.8344
  -1.250   0.2283   0.02593   0.01696  -0.1168  1.0000  0.1306  -1.6044   0.0000   0.0000   0.0000   0.7634
  -1.000   0.2598   0.02558   0.01658  -0.1181  1.0000  0.1617  -1.4736   0.0000   0.0000   0.0000   0.7056
  -0.750   0.2937   0.02511   0.01617  -0.1196  1.0000  0.1926  -1.3265   0.0000   0.0000   0.0000   0.6581
  -0.500   0.3274   0.02487   0.01611  -0.1214  1.0000  0.2451  -1.1635   0.0000   0.0000   0.0000   0.6209
  -0.250   0.3617   0.02472   0.01624  -0.1232  1.0000  0.3345  -1.0224   0.0000   0.0000   0.0000   0.5906
   0.000   0.4058   0.02399   0.01648  -0.1265  1.0000  0.5634  -0.8497   0.0000   0.0000   0.0000   0.5614
   0.250   0.4389   0.02358   0.01655  -0.1272  0.9886  1.0000  -0.7029   0.0000   0.0000   0.0000   0.5391
   0.500   0.4868   0.02419   0.01681  -0.1316  0.9756  1.0000  -0.5863   0.0000   0.0000   0.0000   0.5194
   0.750   0.5342   0.02463   0.01700  -0.1358  0.9626  1.0000  -0.6235   0.0000   0.0000   0.0000   0.5029
   1.000   0.5835   0.02493   0.01712  -0.1400  0.9507  1.0000  -0.6644   0.0000   0.0000   0.0000   0.4884
   1.250   0.6236   0.02511   0.01720  -0.1425  0.9351  1.0000  -0.7025   0.0000   0.0000   0.0000   0.4767
   1.500   0.6695   0.02515   0.01715  -0.1457  0.9219  1.0000  -0.7477   0.0000   0.0000   0.0000   0.4656
   1.750   0.7167   0.02502   0.01696  -0.1490  0.9095  1.0000  -0.7966   0.0000   0.0000   0.0000   0.4556
   2.000   0.7533   0.02494   0.01686  -0.1502  0.8926  1.0000  -0.8419   0.0000   0.0000   0.0000   0.4468
   2.250   0.7988   0.02452   0.01645  -0.1526  0.8793  1.0000  -0.9011   0.0000   0.0000   0.0000   0.4382
   2.500   0.8396   0.02406   0.01604  -0.1540  0.8641  1.0000  -0.9601   0.0000   0.0000   0.0000   0.4303
   2.750   0.8816   0.02340   0.01542  -0.1552  0.8493  1.0000  -1.0230   0.0000   0.0000   0.0000   0.4228
   3.000   0.9281   0.02246   0.01454  -0.1570  0.8363  1.0000  -1.0987   0.0000   0.0000   0.0000   0.4156
   3.250   0.9691   0.02174   0.01392  -0.1578  0.8193  1.0000  -1.1739   0.0000   0.0000   0.0000   0.4090
   3.500   1.0163   0.02071   0.01297  -0.1594  0.8033  1.0000  -1.2614   0.0000   0.0000   0.0000   0.4028
   3.750   1.0570   0.01999   0.01231  -0.1599  0.7820  1.0000  -1.3700   0.0000   0.0000   0.0000   0.3970
   4.000   1.0944   0.01950   0.01191  -0.1600  0.7568  1.0000  -1.4770   0.0000   0.0000   0.0000   0.3916
   4.250   1.1307   0.01916   0.01157  -0.1598  0.7284  1.0000  -1.5843   0.0000   0.0000   0.0000   0.3865
   4.500   1.1624   0.01909   0.01147  -0.1590  0.6965  1.0000  -1.7039   0.0000   0.0000   0.0000   0.3816
   4.750   1.1918   0.01920   0.01151  -0.1579  0.6627  1.0000  -1.8679   0.0000   0.0000   0.0000   0.3770
   5.000   1.2179   0.01949   0.01179  -0.1563  0.6274  1.0000  -2.0263   0.0000   0.0000   0.0000   0.3726
   5.250   1.2416   0.01992   0.01214  -0.1545  0.5908  1.0000  -2.1808   0.0000   0.0000   0.0000   0.3683
   5.500   1.2646   0.02044   0.01254  -0.1525  0.5540  1.0000  -2.3467   0.0000   0.0000   0.0000   0.3642
   5.750   1.2852   0.02107   0.01307  -0.1503  0.5160  1.0000  -2.5237   0.0000   0.0000   0.0000   0.3602
   6.000   1.3048   0.02178   0.01365  -0.1479  0.4777  1.0000  -2.7005   0.0000   0.0000   0.0000   0.3563
   6.250   1.3229   0.02258   0.01433  -0.1454  0.4390  1.0000  -2.8731   0.0000   0.0000   0.0000   0.3525
   6.500   1.3402   0.02348   0.01508  -0.1428  0.4010  1.0000  -3.0451   0.0000   0.0000   0.0000   0.3488
   6.750   1.3547   0.02440   0.01601  -0.1398  0.3617  1.0000  -3.2081   0.0000   0.0000   0.0000   0.3451
   7.000   1.3665   0.02535   0.01675  -0.1365  0.3228  1.0000  -3.3661   0.0000   0.0000   0.0000   0.3415
   7.250   1.3767   0.02635   0.01766  -0.1331  0.2845  1.0000  -3.5172   0.0000   0.0000   0.0000   0.3379
   7.500   1.3871   0.02748   0.01867  -0.1299  0.2503  1.0000  -3.6680   0.0000   0.0000   0.0000   0.3346
   7.750   1.3982   0.02878   0.01989  -0.1269  0.2198  1.0000  -3.8159   0.0000   0.0000   0.0000   0.3313
   8.000   1.4081   0.03022   0.02122  -0.1238  0.1917  1.0000  -3.9545   0.0000   0.0000   0.0000   0.3281
   8.250   1.4163   0.03179   0.02275  -0.1205  0.1642  1.0000  -4.0766   0.0000   0.0000   0.0000   0.3249
   8.500   1.4232   0.03369   0.02449  -0.1171  0.1401  1.0000  -4.1803   0.0000   0.0000   0.0000   0.3217
   8.750   1.4284   0.03570   0.02645  -0.1134  0.1181  1.0000  -4.2582   0.0000   0.0000   0.0000   0.3185
   9.000   1.4374   0.03808   0.02881  -0.1102  0.1003  1.0000  -4.3518   0.0000   0.0000   0.0000   0.3155
   9.250   1.4550   0.04097   0.03159  -0.1084  0.0873  1.0000  -4.4720   0.0000   0.0000   0.0000   0.3129
   9.500   1.4785   0.04399   0.03472  -0.1074  0.0788  1.0000  -4.6085   0.0000   0.0000   0.0000   0.3107
   9.750   1.4953   0.04714   0.03827  -0.1054  0.0735  1.0000  -4.7056   0.0000   0.0000   0.0000   0.3082
  10.000   1.5135   0.05007   0.04119  -0.1044  0.0679  1.0000  -4.8763   0.0000   0.0000   0.0000   0.3063
  10.250   1.5122   0.05280   0.04451  -0.1001  0.0653  1.0000  -4.9097   0.0000   0.0000   0.0000   0.3032
  10.500   1.5134   0.05610   0.04824  -0.0966  0.0635  1.0000  -4.9509   0.0000   0.0000   0.0000   0.3005
  10.750   1.5110   0.05954   0.05206  -0.0930  0.0624  1.0000  -4.9796   0.0000   0.0000   0.0000   0.2979
  11.000   1.5041   0.06307   0.05593  -0.0893  0.0616  1.0000  -4.9933   0.0000   0.0000   0.0000   0.2953
  11.250   1.4927   0.06675   0.05995  -0.0856  0.0612  1.0000  -4.9961   0.0000   0.0000   0.0000   0.2930
  11.500   1.4769   0.07071   0.06424  -0.0822  0.0610  1.0000  -4.9845   0.0000   0.0000   0.0000   0.2910
  11.750   1.4566   0.07506   0.06893  -0.0794  0.0610  1.0000  -4.9443   0.0000   0.0000   0.0000   0.2895
  12.000   1.4321   0.07998   0.07417  -0.0776  0.0612  1.0000  -4.8749   0.0000   0.0000   0.0000   0.2888
  12.250   1.4042   0.08564   0.08015  -0.0771  0.0617  1.0000  -4.7779   0.0000   0.0000   0.0000   0.2892
  12.500   1.3740   0.09221   0.08701  -0.0783  0.0623  1.0000  -4.6548   0.0000   0.0000   0.0000   0.2908
  12.750   1.3423   0.09988   0.09493  -0.0813  0.0630  1.0000  -4.5055   0.0000   0.0000   0.0000   0.2941
  13.000   1.3099   0.10879   0.10404  -0.0863  0.0640  1.0000  -4.3317   0.0000   0.0000   0.0000   0.2991
  13.250   1.2787   0.11897   0.11437  -0.0931  0.0651  1.0000  -4.1429   0.0000   0.0000   0.0000   0.3057
  13.500   1.2520   0.12974   0.12522  -0.1005  0.0663  1.0000  -3.9444   0.0000   0.0000   0.0000   0.3130
  13.750   1.2333   0.13984   0.13527  -0.1070  0.0672  1.0000  -3.7697   0.0000   0.0000   0.0000   0.3193
  14.000   1.2205   0.14940   0.14485  -0.1127  0.0681  1.0000  -3.6083   0.0000   0.0000   0.0000   0.3248
  14.500   1.1835   0.17819   0.17350  -0.1315  0.0778  1.0000  -2.8984   0.0000   0.0000   0.0000   0.3437
  15.000   0.8758   0.18956   0.18505  -0.1163  0.1543  1.0000  -1.4749   0.0000   0.0000   0.0000   0.3680
  15.500   0.8841   0.19729   0.19282  -0.1171  0.1501  1.0000  -1.4842   0.0000   0.0000   0.0000   0.3670
  16.000   0.8912   0.20426   0.19984  -0.1179  0.1400  1.0000  -1.4975   0.0000   0.0000   0.0000   0.3661
  16.500   0.8875   0.20966   0.20527  -0.1199  0.1301  1.0000  -1.4595   0.0000   0.0000   0.0000   0.3683
  17.000   0.8733   0.21503   0.21063  -0.1239  0.1247  1.0000  -1.3419   0.0000   0.0000   0.0000   0.3745
  17.500   0.8923   0.22370   0.21935  -0.1234  0.1190  1.0000  -1.4331   0.0000   0.0000   0.0000   0.3702
  18.000   0.8772   0.22789   0.22355  -0.1278  0.1130  1.0000  -1.3214   0.0000   0.0000   0.0000   0.3770
  18.500   0.8923   0.23643   0.23215  -0.1278  0.1085  1.0000  -1.4062   0.0000   0.0000   0.0000   0.3737
  19.000   0.8823   0.24103   0.23676  -0.1319  0.1027  1.0000  -1.3097   0.0000   0.0000   0.0000   0.3793
  19.500   0.8964   0.24966   0.24544  -0.1320  0.0982  1.0000  -1.3865   0.0000   0.0000   0.0000   0.3762
  20.000   0.8890   0.25424   0.25004  -0.1358  0.0915  1.0000  -1.3195   0.0000   0.0000   0.0000   0.3810


