xflr5 v6.61

 Calculated polar for: BLD_75

 1 1 Reynolds number fixed          Mach number fixed         

 xtrf =   1.000 (top)        1.000 (bottom)
 Mach =   0.200     Re =     0.060 e 6     Ncrit =   7.000

  alpha     CL        CD       CDp       Cm    Top Xtr Bot Xtr   Cpmin    Chinge    XCp    
 ------- -------- --------- --------- -------- ------- ------- -------- --------- ---------
 -18.500  -0.6050   0.23042   0.22292   0.0163  1.0000  0.0392  -1.4780   0.0000   0.0000   0.0000   0.2670
 -18.000  -0.5870   0.22409   0.21659   0.0130  1.0000  0.0412  -1.4559   0.0000   0.0000   0.0000   0.2626
 -17.500  -0.5697   0.21820   0.21072   0.0095  1.0000  0.0434  -1.4540   0.0000   0.0000   0.0000   0.2574
 -17.000  -0.5536   0.21330   0.20584   0.0055  1.0000  0.0453  -1.4798   0.0000   0.0000   0.0000   0.2510
 -16.500  -0.5418   0.21087   0.20345   0.0007  1.0000  0.0461  -1.5463   0.0000   0.0000   0.0000   0.2428
 -16.000  -0.5205   0.20051   0.19311  -0.0009  1.0000  0.0477  -1.4587   0.0000   0.0000   0.0000   0.2400
 -15.500  -0.5030   0.19385   0.18642  -0.0033  1.0000  0.0510  -1.4015   0.0000   0.0000   0.0000   0.2354
 -15.000  -0.4882   0.18849   0.18110  -0.0066  1.0000  0.0545  -1.3964   0.0000   0.0000   0.0000   0.2287
 -14.500  -0.4798   0.18591   0.17858  -0.0110  1.0000  0.0558  -1.4559   0.0000   0.0000   0.0000   0.2197
 -14.000  -0.4593   0.17620   0.16891  -0.0122  1.0000  0.0576  -1.3654   0.0000   0.0000   0.0000   0.2161
 -13.500  -0.4432   0.16951   0.16224  -0.0140  1.0000  0.0609  -1.3245   0.0000   0.0000   0.0000   0.2112
 -13.000  -0.4313   0.16413   0.15691  -0.0168  1.0000  0.0645  -1.3618   0.0000   0.0000   0.0000   0.2040
 -12.500  -0.4284   0.16147   0.15434  -0.0209  1.0000  0.0658  -1.4692   0.0000   0.0000   0.0000   0.1947
 -12.000  -0.4056   0.15133   0.14423  -0.0208  1.0000  0.0690  -1.3935   0.0000   0.0000   0.0000   0.1921
 -11.500  -0.3943   0.14556   0.13846  -0.0227  1.0000  0.0734  -1.4083   0.0000   0.0000   0.0000   0.1860
 -11.000  -0.3959   0.14302   0.13603  -0.0266  1.0000  0.0757  -1.5206   0.0000   0.0000   0.0000   0.1769
 -10.500  -0.3731   0.13336   0.12641  -0.0257  1.0000  0.0811  -1.4256   0.0000   0.0000   0.0000   0.1751
 -10.000  -0.3730   0.12978   0.12295  -0.0286  1.0000  0.0860  -1.5000   0.0000   0.0000   0.0000   0.1679
  -9.500  -0.3573   0.12196   0.11521  -0.0282  1.0000  0.0903  -1.4482   0.0000   0.0000   0.0000   0.1656
  -9.000  -0.3551   0.11745   0.11082  -0.0296  1.0000  0.0960  -1.4808   0.0000   0.0000   0.0000   0.1617
  -8.500  -0.3510   0.11170   0.10522  -0.0299  1.0000  0.0989  -1.4920   0.0000   0.0000   0.0000   0.1603
  -8.000  -0.3464   0.10649   0.10013  -0.0291  1.0000  0.1054  -1.4743   0.0000   0.0000   0.0000   0.1615
  -7.500  -0.3733   0.10540   0.09935  -0.0295  1.0000  0.1078  -1.6051   0.0000   0.0000   0.0000   0.1676
  -7.000  -0.3552   0.09736   0.09138  -0.0255  1.0000  0.1148  -1.4856   0.0000   0.0000   0.0000   0.1747
  -6.000  -0.3610   0.08795   0.08233  -0.0255  1.0000  0.1273  -1.5076   0.0000   0.0000   0.0000   0.1767
  -5.500  -0.3559   0.08235   0.07680  -0.0261  1.0000  0.1341  -1.5127   0.0000   0.0000   0.0000   0.1744
  -5.000  -0.3444   0.07686   0.07139  -0.0292  1.0000  0.1490  -1.5297   0.0000   0.0000   0.0000   0.1631
  -4.500  -0.3263   0.07079   0.06537  -0.0316  1.0000  0.1659  -1.5206   0.0000   0.0000   0.0000   0.1511
  -4.000  -0.2952   0.06434   0.05887  -0.0375  1.0000  0.1862  -1.5143   0.0000   0.0000   0.0000   0.1211
  -3.500  -0.1827   0.04706   0.04047  -0.0653  1.0000  0.0874  -1.9626   0.0000   0.0000   0.0000  -0.1107
  -2.500  -0.0186   0.03047   0.02151  -0.0833  1.0000  0.0777  -1.9976   0.0000   0.0000   0.0000  -4.2571
  -2.000   0.0477   0.02735   0.01742  -0.0863  1.0000  0.0973  -1.8401   0.0000   0.0000   0.0000   2.0687
  -1.500   0.1059   0.02555   0.01528  -0.0877  1.0000  0.1291  -1.6314   0.0000   0.0000   0.0000   1.0820
  -1.000   0.1912   0.02416   0.01383  -0.0937  0.9899  0.1961  -1.2926   0.0000   0.0000   0.0000   0.7417
  -0.500   0.2876   0.02221   0.01309  -0.1023  0.9779  0.4871  -0.9421   0.0000   0.0000   0.0000   0.6060
   0.000   0.3576   0.02161   0.01278  -0.1045  0.9525  1.0000  -0.6311   0.0000   0.0000   0.0000   0.5419
   0.500   0.4427   0.02222   0.01284  -0.1105  0.9294  1.0000  -0.5727   0.0000   0.0000   0.0000   0.4988
   1.000   0.5177   0.02268   0.01303  -0.1143  0.9028  1.0000  -0.6250   0.0000   0.0000   0.0000   0.4695
   1.500   0.5957   0.02291   0.01311  -0.1182  0.8780  1.0000  -0.6849   0.0000   0.0000   0.0000   0.4465
   2.000   0.6694   0.02302   0.01317  -0.1208  0.8522  1.0000  -0.7484   0.0000   0.0000   0.0000   0.4282
   2.500   0.7397   0.02302   0.01324  -0.1223  0.8258  1.0000  -0.8192   0.0000   0.0000   0.0000   0.4127
   3.000   0.8075   0.02300   0.01332  -0.1231  0.7988  1.0000  -0.9070   0.0000   0.0000   0.0000   0.3993
   3.500   0.8739   0.02294   0.01345  -0.1233  0.7707  1.0000  -1.0580   0.0000   0.0000   0.0000   0.3876
   4.000   0.9353   0.02307   0.01383  -0.1226  0.7397  1.0000  -1.3225   0.0000   0.0000   0.0000   0.3771
   4.500   0.9957   0.02322   0.01423  -0.1215  0.7068  1.0000  -1.6393   0.0000   0.0000   0.0000   0.3675
   5.000   1.0532   0.02347   0.01475  -0.1196  0.6699  1.0000  -2.0182   0.0000   0.0000   0.0000   0.3586
   5.500   1.1065   0.02370   0.01533  -0.1167  0.6249  1.0000  -2.4065   0.0000   0.0000   0.0000   0.3499
   6.000   1.1548   0.02370   0.01549  -0.1121  0.5642  1.0000  -2.8586   0.0000   0.0000   0.0000   0.3409
   6.500   1.1876   0.02401   0.01580  -0.1053  0.4764  1.0000  -3.2678   0.0000   0.0000   0.0000   0.3317
   7.000   1.2031   0.02541   0.01694  -0.0968  0.3351  1.0000  -3.5783   0.0000   0.0000   0.0000   0.3228
   7.500   1.1933   0.03084   0.02078  -0.0875  0.1428  1.0000  -3.7020   0.0000   0.0000   0.0000   0.3151
   8.000   1.2009   0.03572   0.02533  -0.0807  0.0945  1.0000  -3.8442   0.0000   0.0000   0.0000   0.3084
   8.500   1.2346   0.04036   0.03001  -0.0763  0.0758  1.0000  -4.1285   0.0000   0.0000   0.0000   0.3024
   9.000   1.2818   0.04564   0.03527  -0.0747  0.0609  1.0000  -4.5442   0.0000   0.0000   0.0000   0.2982
   9.500   1.3232   0.05246   0.04305  -0.0718  0.0558  1.0000  -4.7711   0.0000   0.0000   0.0000   0.2936
  10.000   1.3408   0.05992   0.05126  -0.0675  0.0535  1.0000  -4.9115   0.0000   0.0000   0.0000   0.2891
  10.500   1.3439   0.06807   0.05986  -0.0632  0.0514  1.0000  -5.0289   0.0000   0.0000   0.0000   0.2851
  11.000   1.3095   0.07496   0.06747  -0.0562  0.0509  1.0000  -4.9520   0.0000   0.0000   0.0000   0.2805
  11.500   1.2705   0.08339   0.07648  -0.0530  0.0508  1.0000  -4.8459   0.0000   0.0000   0.0000   0.2787
  12.000   1.2305   0.09371   0.08724  -0.0540  0.0510  1.0000  -4.7111   0.0000   0.0000   0.0000   0.2801
  12.500   1.1930   0.10588   0.09974  -0.0585  0.0514  1.0000  -4.5504   0.0000   0.0000   0.0000   0.2846
  13.000   1.1037   0.13324   0.12753  -0.0804  0.0587  1.0000  -3.6953   0.0000   0.0000   0.0000   0.3083
  13.500   1.0888   0.14924   0.14351  -0.0893  0.0604  1.0000  -3.4372   0.0000   0.0000   0.0000   0.3171
  14.500   1.0674   0.18506   0.17914  -0.1122  0.0752  1.0000  -2.6179   0.0000   0.0000   0.0000   0.3398


