xflr5 v6.61

 Calculated polar for: BLD_50

 1 1 Reynolds number fixed          Mach number fixed         

 xtrf =   1.000 (top)        1.000 (bottom)
 Mach =   0.200     Re =     0.050 e 6     Ncrit =   9.000

  alpha     CL        CD       CDp       Cm    Top Xtr Bot Xtr   Cpmin    Chinge    XCp    
 ------- -------- --------- --------- -------- ------- ------- -------- --------- ---------
 -24.000  -0.7653   0.29338   0.28505   0.0489  1.0000  0.0384  -1.5581   0.0000   0.0000   0.0000   0.2985
 -23.500  -0.7483   0.28660   0.27824   0.0452  1.0000  0.0402  -1.4997   0.0000   0.0000   0.0000   0.2956
 -23.000  -0.7314   0.28099   0.27263   0.0411  1.0000  0.0422  -1.4637   0.0000   0.0000   0.0000   0.2920
 -22.500  -0.7145   0.27581   0.26744   0.0369  1.0000  0.0441  -1.4388   0.0000   0.0000   0.0000   0.2879
 -22.000  -0.6980   0.27196   0.26359   0.0322  1.0000  0.0455  -1.4325   0.0000   0.0000   0.0000   0.2830
 -21.500  -0.6843   0.27139   0.26301   0.0269  1.0000  0.0461  -1.4930   0.0000   0.0000   0.0000   0.2768
 -21.000  -0.6645   0.26019   0.25182   0.0243  1.0000  0.0472  -1.4466   0.0000   0.0000   0.0000   0.2745
 -20.500  -0.6465   0.25300   0.24462   0.0213  1.0000  0.0493  -1.4126   0.0000   0.0000   0.0000   0.2712
 -20.000  -0.6293   0.24721   0.23883   0.0178  1.0000  0.0516  -1.4050   0.0000   0.0000   0.0000   0.2669
 -19.500  -0.6126   0.24199   0.23362   0.0140  1.0000  0.0540  -1.4125   0.0000   0.0000   0.0000   0.2620
 -19.000  -0.5977   0.23879   0.23045   0.0096  1.0000  0.0555  -1.4496   0.0000   0.0000   0.0000   0.2557
 -18.500  -0.5847   0.23590   0.22758   0.0054  1.0000  0.0561  -1.4885   0.0000   0.0000   0.0000   0.2493
 -18.000  -0.5625   0.22439   0.21605   0.0041  1.0000  0.0591  -1.3897   0.0000   0.0000   0.0000   0.2474
 -17.500  -0.5459   0.21865   0.21033   0.0011  1.0000  0.0626  -1.3669   0.0000   0.0000   0.0000   0.2425
 -17.000  -0.5323   0.21504   0.20677  -0.0027  1.0000  0.0653  -1.3854   0.0000   0.0000   0.0000   0.2358
 -16.500  -0.5190   0.21034   0.20213  -0.0061  1.0000  0.0663  -1.3936   0.0000   0.0000   0.0000   0.2295
 -16.000  -0.4987   0.20125   0.19305  -0.0074  1.0000  0.0697  -1.3084   0.0000   0.0000   0.0000   0.2265
 -15.500  -0.4839   0.19588   0.18771  -0.0101  1.0000  0.0735  -1.2857   0.0000   0.0000   0.0000   0.2208
 -15.000  -0.4765   0.19404   0.18590  -0.0139  1.0000  0.0756  -1.3311   0.0000   0.0000   0.0000   0.2129
 -14.500  -0.4558   0.18417   0.17606  -0.0148  1.0000  0.0784  -1.2884   0.0000   0.0000   0.0000   0.2096
 -14.000  -0.3420   0.17312   0.16578  -0.0267  1.0000  0.0868  -1.1036   0.0000   0.0000   0.0000   0.1670
 -13.500  -0.3257   0.16492   0.15757  -0.0264  1.0000  0.0922  -1.0570   0.0000   0.0000   0.0000   0.1638
 -13.000  -0.3280   0.16259   0.15528  -0.0277  1.0000  0.0965  -1.1159   0.0000   0.0000   0.0000   0.1604
 -12.500  -0.3171   0.15575   0.14848  -0.0278  1.0000  0.1008  -1.0988   0.0000   0.0000   0.0000   0.1573
 -12.000  -0.3159   0.15194   0.14471  -0.0287  1.0000  0.1066  -1.1298   0.0000   0.0000   0.0000   0.1543
 -11.500  -0.3090   0.14592   0.13871  -0.0289  1.0000  0.1104  -1.1307   0.0000   0.0000   0.0000   0.1515
 -11.000  -0.3047   0.14098   0.13383  -0.0292  1.0000  0.1169  -1.1368   0.0000   0.0000   0.0000   0.1493
 -10.500  -0.3007   0.13544   0.12838  -0.0295  1.0000  0.1208  -1.1464   0.0000   0.0000   0.0000   0.1473
 -10.000  -0.2973   0.13042   0.12344  -0.0295  1.0000  0.1281  -1.1474   0.0000   0.0000   0.0000   0.1464
  -9.750  -0.3063   0.12986   0.12297  -0.0303  1.0000  0.1294  -1.1970   0.0000   0.0000   0.0000   0.1471
  -9.500  -0.2903   0.12413   0.11726  -0.0290  1.0000  0.1336  -1.1304   0.0000   0.0000   0.0000   0.1459
  -9.250  -0.2902   0.12180   0.11498  -0.0289  1.0000  0.1380  -1.1332   0.0000   0.0000   0.0000   0.1465
  -9.000  -0.2998   0.12107   0.11436  -0.0294  1.0000  0.1401  -1.1784   0.0000   0.0000   0.0000   0.1484
  -8.750  -0.2872   0.11610   0.10941  -0.0281  1.0000  0.1441  -1.1254   0.0000   0.0000   0.0000   0.1482
  -8.500  -0.2877   0.11378   0.10716  -0.0277  1.0000  0.1488  -1.1252   0.0000   0.0000   0.0000   0.1500
  -8.250  -0.3000   0.11320   0.10670  -0.0278  1.0000  0.1510  -1.1722   0.0000   0.0000   0.0000   0.1540
  -8.000  -0.2862   0.10817   0.10170  -0.0264  1.0000  0.1559  -1.1265   0.0000   0.0000   0.0000   0.1545
  -7.750  -0.2919   0.10648   0.10010  -0.0257  1.0000  0.1607  -1.1505   0.0000   0.0000   0.0000   0.1588
  -7.500  -0.3092   0.10633   0.10009  -0.0250  1.0000  0.1622  -1.2047   0.0000   0.0000   0.0000   0.1664
  -7.250  -0.2926   0.10108   0.09486  -0.0234  1.0000  0.1702  -1.1606   0.0000   0.0000   0.0000   0.1673
  -6.750  -0.3527   0.10155   0.09508  -0.0205  1.0000  0.1702  -1.3417   0.0000   0.0000   0.0000   0.1885
  -6.500  -0.3673   0.10141   0.09512  -0.0220  1.0000  0.1732  -1.4026   0.0000   0.0000   0.0000   0.1873
  -6.250  -0.3567   0.09713   0.09087  -0.0188  1.0000  0.1816  -1.3623   0.0000   0.0000   0.0000   0.1942
  -5.750  -0.3624   0.09340   0.08734  -0.0203  1.0000  0.1949  -1.4069   0.0000   0.0000   0.0000   0.1913
  -5.500  -0.3573   0.09012   0.08413  -0.0180  1.0000  0.2045  -1.3857   0.0000   0.0000   0.0000   0.1970
  -5.250  -0.3538   0.08722   0.08124  -0.0168  1.0000  0.2130  -1.3779   0.0000   0.0000   0.0000   0.2000
  -5.000  -0.3509   0.08457   0.07867  -0.0168  1.0000  0.2219  -1.3796   0.0000   0.0000   0.0000   0.1997
  -4.750  -0.3468   0.08190   0.07606  -0.0173  1.0000  0.2319  -1.3812   0.0000   0.0000   0.0000   0.1979
  -4.500  -0.3409   0.07915   0.07337  -0.0178  1.0000  0.2428  -1.3789   0.0000   0.0000   0.0000   0.1956
  -4.250  -0.3336   0.07635   0.07061  -0.0181  1.0000  0.2552  -1.3713   0.0000   0.0000   0.0000   0.1936
  -4.000  -0.3221   0.07367   0.06796  -0.0218  1.0000  0.2724  -1.3756   0.0000   0.0000   0.0000   0.1803
  -3.750  -0.3142   0.07059   0.06494  -0.0199  1.0000  0.2862  -1.3509   0.0000   0.0000   0.0000   0.1846
  -3.500  -0.3017   0.06772   0.06209  -0.0212  1.0000  0.3068  -1.3349   0.0000   0.0000   0.0000   0.1778
  -3.250  -0.2898   0.06485   0.05926  -0.0210  1.0000  0.3292  -1.3102   0.0000   0.0000   0.0000   0.1753
  -2.500  -0.0579   0.04260   0.03515  -0.0796  1.0000  0.1489  -1.5680   0.0000   0.0000   0.0000  -1.1345
  -2.250   0.0019   0.03753   0.02932  -0.0884  1.0000  0.1377  -1.5925   0.0000   0.0000   0.0000  46.3780
  -2.000   0.0464   0.03475   0.02595  -0.0930  1.0000  0.1496  -1.5759   0.0000   0.0000   0.0000   2.2627
  -1.750   0.0912   0.03196   0.02263  -0.0969  1.0000  0.1569  -1.5718   0.0000   0.0000   0.0000   1.3170
  -1.500   0.1284   0.03039   0.02064  -0.0992  1.0000  0.1829  -1.5196   0.0000   0.0000   0.0000   1.0254
  -1.250   0.1650   0.02900   0.01888  -0.1011  1.0000  0.2063  -1.4440   0.0000   0.0000   0.0000   0.8646
  -1.000   0.1974   0.02800   0.01779  -0.1022  1.0000  0.2331  -1.3329   0.0000   0.0000   0.0000   0.7691
  -0.750   0.2289   0.02733   0.01703  -0.1031  1.0000  0.2754  -1.2091   0.0000   0.0000   0.0000   0.7013
  -0.500   0.2610   0.02668   0.01642  -0.1041  1.0000  0.3446  -1.1012   0.0000   0.0000   0.0000   0.6492
  -0.250   0.3002   0.02538   0.01591  -0.1061  1.0000  0.5113  -0.9719   0.0000   0.0000   0.0000   0.6033
   0.000   0.3061   0.02411   0.01556  -0.1016  1.0000  1.0000  -0.9223   0.0000   0.0000   0.0000   0.5817
   0.250   0.3304   0.02492   0.01585  -0.1021  1.0000  1.0000  -0.8020   0.0000   0.0000   0.0000   0.5583
   0.500   0.3525   0.02581   0.01643  -0.1024  1.0000  1.0000  -0.6823   0.0000   0.0000   0.0000   0.5395
   0.750   0.3735   0.02679   0.01717  -0.1026  1.0000  1.0000  -0.5669   0.0000   0.0000   0.0000   0.5236
   1.000   0.3935   0.02786   0.01804  -0.1029  1.0000  1.0000  -0.5372   0.0000   0.0000   0.0000   0.5101
   1.250   0.4127   0.02903   0.01907  -0.1032  1.0000  1.0000  -0.5514   0.0000   0.0000   0.0000   0.4984
   1.500   0.4518   0.03039   0.02027  -0.1072  0.9900  1.0000  -0.5788   0.0000   0.0000   0.0000   0.4854
   1.750   0.5031   0.03166   0.02140  -0.1131  0.9722  1.0000  -0.6162   0.0000   0.0000   0.0000   0.4726
   2.000   0.5500   0.03271   0.02236  -0.1178  0.9541  1.0000  -0.6534   0.0000   0.0000   0.0000   0.4619
   2.250   0.5955   0.03363   0.02322  -0.1221  0.9362  1.0000  -0.6929   0.0000   0.0000   0.0000   0.4524
   2.500   0.6447   0.03440   0.02397  -0.1266  0.9193  1.0000  -0.7387   0.0000   0.0000   0.0000   0.4436
   2.750   0.6826   0.03511   0.02469  -0.1290  0.9002  1.0000  -0.7792   0.0000   0.0000   0.0000   0.4360
   3.000   0.7205   0.03574   0.02539  -0.1312  0.8815  1.0000  -0.8251   0.0000   0.0000   0.0000   0.4289
   3.250   0.7613   0.03623   0.02594  -0.1336  0.8635  1.0000  -0.8792   0.0000   0.0000   0.0000   0.4220
   3.500   0.8046   0.03650   0.02630  -0.1359  0.8459  1.0000  -0.9405   0.0000   0.0000   0.0000   0.4152
   3.750   0.8389   0.03689   0.02684  -0.1367  0.8265  1.0000  -0.9994   0.0000   0.0000   0.0000   0.4091
   4.000   0.8757   0.03709   0.02718  -0.1376  0.8076  1.0000  -1.0684   0.0000   0.0000   0.0000   0.4030
   4.250   0.9248   0.03654   0.02681  -0.1395  0.7909  1.0000  -1.1853   0.0000   0.0000   0.0000   0.3964
   4.500   0.9621   0.03631   0.02681  -0.1395  0.7714  1.0000  -1.2847   0.0000   0.0000   0.0000   0.3904
   4.750   1.0020   0.03583   0.02654  -0.1396  0.7514  1.0000  -1.4371   0.0000   0.0000   0.0000   0.3844
   5.000   1.0437   0.03501   0.02594  -0.1393  0.7307  1.0000  -1.6280   0.0000   0.0000   0.0000   0.3783
   5.250   1.0881   0.03385   0.02502  -0.1389  0.7085  1.0000  -1.8353   0.0000   0.0000   0.0000   0.3722
   5.500   1.1370   0.03221   0.02370  -0.1384  0.6839  1.0000  -2.0927   0.0000   0.0000   0.0000   0.3660
   5.750   1.1717   0.03147   0.02316  -0.1364  0.6539  1.0000  -2.3180   0.0000   0.0000   0.0000   0.3605
   6.000   1.2085   0.03058   0.02240  -0.1345  0.6204  1.0000  -2.5605   0.0000   0.0000   0.0000   0.3550
   6.250   1.2391   0.03012   0.02201  -0.1319  0.5823  1.0000  -2.7834   0.0000   0.0000   0.0000   0.3498
   6.500   1.2654   0.02990   0.02179  -0.1288  0.5391  1.0000  -2.9935   0.0000   0.0000   0.0000   0.3447
   6.750   1.2860   0.02997   0.02179  -0.1250  0.4904  1.0000  -3.1820   0.0000   0.0000   0.0000   0.3398
   7.000   1.3004   0.03028   0.02208  -0.1205  0.4355  1.0000  -3.3453   0.0000   0.0000   0.0000   0.3349
   7.250   1.3087   0.03098   0.02251  -0.1156  0.3767  1.0000  -3.5016   0.0000   0.0000   0.0000   0.3302
   7.500   1.3133   0.03232   0.02350  -0.1106  0.3160  1.0000  -3.6262   0.0000   0.0000   0.0000   0.3257
   7.750   1.3170   0.03431   0.02499  -0.1059  0.2577  1.0000  -3.7273   0.0000   0.0000   0.0000   0.3216
   8.000   1.3213   0.03676   0.02707  -0.1018  0.2085  1.0000  -3.8093   0.0000   0.0000   0.0000   0.3178
   8.250   1.3243   0.03904   0.02904  -0.0980  0.1713  1.0000  -3.8960   0.0000   0.0000   0.0000   0.3145
   8.500   1.3364   0.04176   0.03157  -0.0955  0.1426  1.0000  -3.9897   0.0000   0.0000   0.0000   0.3116
   8.750   1.3627   0.04536   0.03526  -0.0944  0.1239  1.0000  -4.0794   0.0000   0.0000   0.0000   0.3091
   9.000   1.3883   0.04924   0.03937  -0.0934  0.1136  1.0000  -4.1642   0.0000   0.0000   0.0000   0.3067
   9.250   1.4082   0.05342   0.04387  -0.0919  0.1080  1.0000  -4.2411   0.0000   0.0000   0.0000   0.3044
   9.500   1.4152   0.05751   0.04853  -0.0890  0.1050  1.0000  -4.2890   0.0000   0.0000   0.0000   0.3018
   9.750   1.4324   0.06155   0.05258  -0.0879  0.0996  1.0000  -4.4349   0.0000   0.0000   0.0000   0.2999
  10.000   1.4215   0.06537   0.05703  -0.0836  0.0980  1.0000  -4.4166   0.0000   0.0000   0.0000   0.2972
  10.250   1.4083   0.06930   0.06145  -0.0797  0.0967  1.0000  -4.3961   0.0000   0.0000   0.0000   0.2947
  10.500   1.3914   0.07322   0.06575  -0.0759  0.0959  1.0000  -4.3658   0.0000   0.0000   0.0000   0.2924
  10.750   1.3705   0.07722   0.07006  -0.0723  0.0957  1.0000  -4.3196   0.0000   0.0000   0.0000   0.2903
  11.000   1.3466   0.08165   0.07477  -0.0696  0.0961  1.0000  -4.2562   0.0000   0.0000   0.0000   0.2890
  11.250   1.3213   0.08665   0.08001  -0.0682  0.0969  1.0000  -4.1797   0.0000   0.0000   0.0000   0.2886
  11.500   1.2962   0.09226   0.08583  -0.0681  0.0978  1.0000  -4.0957   0.0000   0.0000   0.0000   0.2892
  11.750   1.2727   0.09845   0.09218  -0.0692  0.0987  1.0000  -4.0091   0.0000   0.0000   0.0000   0.2908
  12.000   1.2518   0.10513   0.09897  -0.0713  0.0994  1.0000  -3.9234   0.0000   0.0000   0.0000   0.2930
  13.750   1.0700   0.19304   0.18671  -0.1387  0.2426  1.0000  -1.9178   0.0000   0.0000   0.0000   0.3656
  14.000   1.0819   0.19813   0.19184  -0.1396  0.2387  1.0000  -1.9266   0.0000   0.0000   0.0000   0.3647
  14.250   1.0832   0.20213   0.19581  -0.1420  0.2356  1.0000  -1.8975   0.0000   0.0000   0.0000   0.3664
  14.500   1.0880   0.20582   0.19951  -0.1437  0.2292  1.0000  -1.8976   0.0000   0.0000   0.0000   0.3670
  14.750   1.0934   0.20996   0.20365  -0.1455  0.2243  1.0000  -1.9029   0.0000   0.0000   0.0000   0.3677
  15.000   1.1073   0.21503   0.20874  -0.1458  0.2154  1.0000  -1.9547   0.0000   0.0000   0.0000   0.3659


