xflr5 v6.61

 Calculated polar for: BLD_75

 1 1 Reynolds number fixed          Mach number fixed         

 xtrf =   1.000 (top)        1.000 (bottom)
 Mach =   0.200     Re =     0.090 e 6     Ncrit =   7.000

  alpha     CL        CD       CDp       Cm    Top Xtr Bot Xtr   Cpmin    Chinge    XCp    
 ------- -------- --------- --------- -------- ------- ------- -------- --------- ---------
 -25.000  -0.8302   0.30806   0.30201   0.0703  1.0000  0.0168  -1.7567   0.0000   0.0000   0.0000   0.3178
 -24.500  -0.8136   0.29974   0.29365   0.0668  1.0000  0.0173  -1.6673   0.0000   0.0000   0.0000   0.3159
 -24.000  -0.7968   0.29381   0.28770   0.0624  1.0000  0.0179  -1.6207   0.0000   0.0000   0.0000   0.3128
 -23.500  -0.7795   0.28809   0.28196   0.0579  1.0000  0.0186  -1.5841   0.0000   0.0000   0.0000   0.3094
 -23.000  -0.7621   0.28234   0.27620   0.0535  1.0000  0.0194  -1.5502   0.0000   0.0000   0.0000   0.3059
 -22.500  -0.7444   0.27656   0.27041   0.0490  1.0000  0.0202  -1.5174   0.0000   0.0000   0.0000   0.3022
 -22.000  -0.7265   0.27077   0.26459   0.0446  1.0000  0.0210  -1.4869   0.0000   0.0000   0.0000   0.2982
 -21.500  -0.7085   0.26511   0.25892   0.0401  1.0000  0.0218  -1.4647   0.0000   0.0000   0.0000   0.2940
 -21.000  -0.6905   0.25999   0.25380   0.0354  1.0000  0.0222  -1.4669   0.0000   0.0000   0.0000   0.2891
 -20.500  -0.6736   0.25572   0.24954   0.0304  1.0000  0.0224  -1.5314   0.0000   0.0000   0.0000   0.2835
 -20.000  -0.6557   0.24851   0.24236   0.0267  1.0000  0.0227  -1.5301   0.0000   0.0000   0.0000   0.2795
 -19.500  -0.6374   0.24090   0.23474   0.0240  1.0000  0.0239  -1.4504   0.0000   0.0000   0.0000   0.2768
 -19.000  -0.6195   0.23489   0.22870   0.0203  1.0000  0.0256  -1.4403   0.0000   0.0000   0.0000   0.2723
 -18.500  -0.6016   0.22913   0.22295   0.0163  1.0000  0.0272  -1.4672   0.0000   0.0000   0.0000   0.2670
 -18.000  -0.5853   0.22529   0.21913   0.0114  1.0000  0.0282  -1.5510   0.0000   0.0000   0.0000   0.2598
 -17.500  -0.5739   0.22376   0.21764   0.0061  1.0000  0.0285  -1.6583   0.0000   0.0000   0.0000   0.2515
 -17.000  -0.5510   0.21129   0.20518   0.0049  1.0000  0.0293  -1.5528   0.0000   0.0000   0.0000   0.2498
 -16.500  -0.5330   0.20418   0.19807   0.0025  1.0000  0.0307  -1.4856   0.0000   0.0000   0.0000   0.2459
 -16.000  -0.5161   0.19794   0.19185  -0.0004  1.0000  0.0323  -1.4523   0.0000   0.0000   0.0000   0.2406
 -15.500  -0.4997   0.19182   0.18571  -0.0035  1.0000  0.0340  -1.4312   0.0000   0.0000   0.0000   0.2348
 -15.000  -0.4841   0.18588   0.17979  -0.0066  1.0000  0.0359  -1.4253   0.0000   0.0000   0.0000   0.2283
 -14.500  -0.4708   0.18102   0.17497  -0.0105  1.0000  0.0371  -1.4612   0.0000   0.0000   0.0000   0.2200
 -14.000  -0.4629   0.17765   0.17166  -0.0147  1.0000  0.0375  -1.5300   0.0000   0.0000   0.0000   0.2108
 -13.500  -0.4408   0.16716   0.16119  -0.0149  1.0000  0.0392  -1.3778   0.0000   0.0000   0.0000   0.2089
 -13.000  -0.4260   0.16085   0.15490  -0.0167  1.0000  0.0421  -1.3479   0.0000   0.0000   0.0000   0.2035
 -12.500  -0.4142   0.15526   0.14935  -0.0195  1.0000  0.0449  -1.3965   0.0000   0.0000   0.0000   0.1960
 -12.000  -0.4113   0.15216   0.14634  -0.0238  1.0000  0.0460  -1.5334   0.0000   0.0000   0.0000   0.1856
 -11.500  -0.3939   0.14309   0.13731  -0.0243  1.0000  0.0473  -1.4985   0.0000   0.0000   0.0000   0.1819
 -11.000  -0.3791   0.13620   0.13041  -0.0248  1.0000  0.0499  -1.4505   0.0000   0.0000   0.0000   0.1782
 -10.500  -0.3691   0.13039   0.12466  -0.0264  1.0000  0.0531  -1.4685   0.0000   0.0000   0.0000   0.1722
 -10.000  -0.3677   0.12632   0.12069  -0.0297  1.0000  0.0555  -1.5753   0.0000   0.0000   0.0000   0.1636
  -9.500  -0.3751   0.12346   0.11798  -0.0334  1.0000  0.0560  -1.7285   0.0000   0.0000   0.0000   0.1560
  -9.000  -0.3469   0.11300   0.10753  -0.0298  1.0000  0.0594  -1.5254   0.0000   0.0000   0.0000   0.1588
  -8.500  -0.3431   0.10798   0.10262  -0.0303  1.0000  0.0636  -1.5370   0.0000   0.0000   0.0000   0.1568
  -8.000  -0.3594   0.10556   0.10041  -0.0319  1.0000  0.0657  -1.6844   0.0000   0.0000   0.0000   0.1572
  -7.500  -0.3446   0.09813   0.09306  -0.0287  1.0000  0.0699  -1.5545   0.0000   0.0000   0.0000   0.1628
  -7.000  -0.3587   0.09481   0.08993  -0.0261  1.0000  0.0739  -1.5936   0.0000   0.0000   0.0000   0.1740
  -6.500  -0.3727   0.09179   0.08710  -0.0340  1.0000  0.0758  -1.8059   0.0000   0.0000   0.0000   0.1560
  -6.000  -0.3652   0.08483   0.08024  -0.0253  1.0000  0.0792  -1.6183   0.0000   0.0000   0.0000   0.1782
  -5.500  -0.3573   0.07947   0.07497  -0.0306  1.0000  0.0855  -1.6629   0.0000   0.0000   0.0000   0.1619
  -5.000  -0.3436   0.07288   0.06838  -0.0327  1.0000  0.0889  -1.6487   0.0000   0.0000   0.0000   0.1527
  -4.500  -0.3075   0.06535   0.06074  -0.0433  1.0000  0.0980  -1.7234   0.0000   0.0000   0.0000   0.1070
  -3.500  -0.1564   0.04200   0.03630  -0.0712  0.9954  0.0646  -2.0735   0.0000   0.0000   0.0000  -0.2097
  -3.000  -0.0441   0.02983   0.02247  -0.0867  0.9911  0.0542  -2.2597   0.0000   0.0000   0.0000  -1.7325
  -2.500   0.0536   0.02418   0.01547  -0.0954  0.9848  0.0591  -2.0727   0.0000   0.0000   0.0000   2.0442
  -2.000   0.1423   0.02176   0.01250  -0.1019  0.9742  0.0874  -1.7817   0.0000   0.0000   0.0000   0.9701
  -1.500   0.2268   0.02024   0.01102  -0.1077  0.9615  0.1381  -1.3896   0.0000   0.0000   0.0000   0.7265
  -1.000   0.3096   0.01895   0.01011  -0.1131  0.9478  0.2550  -1.0408   0.0000   0.0000   0.0000   0.6161
  -0.500   0.3753   0.01659   0.00961  -0.1141  0.9312  1.0000  -0.7240   0.0000   0.0000   0.0000   0.5541
   0.500   0.5276   0.01651   0.00868  -0.1208  0.8916  1.0000  -0.6299   0.0000   0.0000   0.0000   0.4780
   1.000   0.5998   0.01630   0.00830  -0.1230  0.8702  1.0000  -0.6849   0.0000   0.0000   0.0000   0.4536
   1.500   0.6696   0.01604   0.00794  -0.1244  0.8470  1.0000  -0.7440   0.0000   0.0000   0.0000   0.4340
   2.000   0.7361   0.01583   0.00770  -0.1251  0.8208  1.0000  -0.8071   0.0000   0.0000   0.0000   0.4177
   2.500   0.8002   0.01572   0.00757  -0.1253  0.7917  1.0000  -0.8795   0.0000   0.0000   0.0000   0.4039
   3.000   0.8607   0.01579   0.00767  -0.1248  0.7594  1.0000  -0.9842   0.0000   0.0000   0.0000   0.3919
   3.500   0.9185   0.01604   0.00794  -0.1239  0.7250  1.0000  -1.1810   0.0000   0.0000   0.0000   0.3813
   4.000   0.9737   0.01645   0.00845  -0.1226  0.6887  1.0000  -1.4659   0.0000   0.0000   0.0000   0.3718
   4.500   1.0281   0.01694   0.00900  -0.1211  0.6514  1.0000  -1.8054   0.0000   0.0000   0.0000   0.3631
   5.000   1.0790   0.01750   0.00971  -0.1188  0.6082  1.0000  -2.1744   0.0000   0.0000   0.0000   0.3549
   5.500   1.1255   0.01808   0.01035  -0.1155  0.5538  1.0000  -2.5699   0.0000   0.0000   0.0000   0.3469
   6.000   1.1655   0.01879   0.01104  -0.1112  0.4799  1.0000  -3.0022   0.0000   0.0000   0.0000   0.3390
   6.500   1.1965   0.01998   0.01200  -0.1056  0.3632  1.0000  -3.4009   0.0000   0.0000   0.0000   0.3313
   7.000   1.2038   0.02403   0.01451  -0.0982  0.1359  1.0000  -3.6578   0.0000   0.0000   0.0000   0.3239
   7.500   1.2154   0.02843   0.01858  -0.0913  0.0745  1.0000  -3.8395   0.0000   0.0000   0.0000   0.3169
   8.000   1.2321   0.03216   0.02236  -0.0851  0.0584  1.0000  -4.0970   0.0000   0.0000   0.0000   0.3102
   8.500   1.2576   0.03595   0.02627  -0.0802  0.0484  1.0000  -4.4446   0.0000   0.0000   0.0000   0.3043
   9.000   1.3033   0.04108   0.03153  -0.0782  0.0426  1.0000  -4.8468   0.0000   0.0000   0.0000   0.2999
   9.500   1.3384   0.04695   0.03820  -0.0748  0.0384  1.0000  -5.1105   0.0000   0.0000   0.0000   0.2951
  10.000   1.3532   0.05255   0.04439  -0.0700  0.0347  1.0000  -5.3474   0.0000   0.0000   0.0000   0.2903
  10.500   1.3509   0.05920   0.05166  -0.0639  0.0337  1.0000  -5.4468   0.0000   0.0000   0.0000   0.2853
  11.000   1.3317   0.06639   0.05955  -0.0579  0.0333  1.0000  -5.4508   0.0000   0.0000   0.0000   0.2808
  11.500   1.3004   0.07446   0.06821  -0.0539  0.0333  1.0000  -5.3785   0.0000   0.0000   0.0000   0.2781
  12.000   1.2604   0.08428   0.07859  -0.0536  0.0336  1.0000  -5.2290   0.0000   0.0000   0.0000   0.2785
  12.500   1.2069   0.09795   0.09275  -0.0592  0.0345  1.0000  -4.9259   0.0000   0.0000   0.0000   0.2843
  13.000   1.1473   0.11753   0.11276  -0.0724  0.0359  1.0000  -4.4507   0.0000   0.0000   0.0000   0.2979
  13.500   1.1000   0.14159   0.13694  -0.0891  0.0381  1.0000  -3.8340   0.0000   0.0000   0.0000   0.3157
  14.000   1.0842   0.15988   0.15518  -0.0996  0.0398  1.0000  -3.4224   0.0000   0.0000   0.0000   0.3263
  14.500   1.0837   0.17244   0.16769  -0.1058  0.0411  1.0000  -3.2477   0.0000   0.0000   0.0000   0.3316


