xflr5 v6.61

 Calculated polar for: BLD_75

 1 1 Reynolds number fixed          Mach number fixed         

 xtrf =   1.000 (top)        1.000 (bottom)
 Mach =   0.200     Re =     0.050 e 6     Ncrit =   7.000

  alpha     CL        CD       CDp       Cm    Top Xtr Bot Xtr   Cpmin    Chinge    XCp    
 ------- -------- --------- --------- -------- ------- ------- -------- --------- ---------
 -27.500  -0.5527   0.29203   0.28540   0.0343  1.0000  0.0289  -0.9448   0.0000   0.0000   0.0000   0.3016
 -27.000  -0.5441   0.28447   0.27779   0.0320  1.0000  0.0299  -0.9182   0.0000   0.0000   0.0000   0.2989
 -26.500  -0.5364   0.27885   0.27210   0.0294  1.0000  0.0310  -0.9141   0.0000   0.0000   0.0000   0.2954
 -26.000  -0.5286   0.27357   0.26677   0.0267  1.0000  0.0321  -0.9157   0.0000   0.0000   0.0000   0.2916
 -25.500  -0.5207   0.26842   0.26157   0.0240  1.0000  0.0334  -0.9188   0.0000   0.0000   0.0000   0.2877
 -25.000  -0.5128   0.26338   0.25649   0.0213  1.0000  0.0347  -0.9223   0.0000   0.0000   0.0000   0.2836
 -24.500  -0.5047   0.25856   0.25162   0.0186  1.0000  0.0359  -0.9275   0.0000   0.0000   0.0000   0.2792
 -24.000  -0.4971   0.25442   0.24744   0.0158  1.0000  0.0369  -0.9416   0.0000   0.0000   0.0000   0.2744
 -23.500  -0.4912   0.25179   0.24474   0.0127  1.0000  0.0374  -0.9705   0.0000   0.0000   0.0000   0.2689
 -23.000  -0.4811   0.24473   0.23769   0.0105  1.0000  0.0382  -0.9380   0.0000   0.0000   0.0000   0.2652
 -22.500  -0.4712   0.23871   0.23162   0.0084  1.0000  0.0400  -0.8948   0.0000   0.0000   0.0000   0.2615
 -22.000  -0.4623   0.23381   0.22669   0.0061  1.0000  0.0417  -0.8774   0.0000   0.0000   0.0000   0.2570
 -21.500  -0.4536   0.22924   0.22209   0.0036  1.0000  0.0436  -0.8985   0.0000   0.0000   0.0000   0.2522
 -21.000  -0.4458   0.22544   0.21826   0.0010  1.0000  0.0453  -0.9371   0.0000   0.0000   0.0000   0.2467
 -20.500  -0.4406   0.22348   0.21628  -0.0018  1.0000  0.0460  -1.0011   0.0000   0.0000   0.0000   0.2404
 -20.000  -0.4306   0.21739   0.21016  -0.0039  1.0000  0.0468  -1.0115   0.0000   0.0000   0.0000   0.2357
 -19.500  -0.4190   0.21091   0.20365  -0.0054  1.0000  0.0490  -0.9862   0.0000   0.0000   0.0000   0.2319
 -19.000  -0.4098   0.20635   0.19907  -0.0074  1.0000  0.0514  -0.9929   0.0000   0.0000   0.0000   0.2268
 -18.500  -0.4018   0.20244   0.19514  -0.0096  1.0000  0.0539  -1.0140   0.0000   0.0000   0.0000   0.2212
 -18.000  -0.3976   0.20070   0.19339  -0.0122  1.0000  0.0556  -1.0693   0.0000   0.0000   0.0000   0.2145
 -17.500  -0.3877   0.19499   0.18769  -0.0138  1.0000  0.0571  -1.0626   0.0000   0.0000   0.0000   0.2095
 -17.000  -0.3768   0.18960   0.18224  -0.0151  1.0000  0.0605  -1.0301   0.0000   0.0000   0.0000   0.2051
 -16.500  -0.3698   0.18604   0.17867  -0.0169  1.0000  0.0637  -1.0371   0.0000   0.0000   0.0000   0.1994
 -16.000  -0.3678   0.18464   0.17727  -0.0191  1.0000  0.0655  -1.0807   0.0000   0.0000   0.0000   0.1932
 -15.500  -0.3603   0.17996   0.17261  -0.0205  1.0000  0.0668  -1.0748   0.0000   0.0000   0.0000   0.1883
 -15.000  -0.3497   0.17455   0.16718  -0.0213  1.0000  0.0703  -1.0293   0.0000   0.0000   0.0000   0.1842
 -14.500  -0.3454   0.17151   0.16415  -0.0228  1.0000  0.0740  -1.0372   0.0000   0.0000   0.0000   0.1792
 -14.000  -0.3502   0.17088   0.16353  -0.0248  1.0000  0.0757  -1.1294   0.0000   0.0000   0.0000   0.1743
 -13.500  -0.3345   0.16253   0.15521  -0.0250  1.0000  0.0788  -1.0977   0.0000   0.0000   0.0000   0.1702
 -13.000  -0.3291   0.15795   0.15064  -0.0260  1.0000  0.0837  -1.1197   0.0000   0.0000   0.0000   0.1661
 -12.500  -0.3358   0.15619   0.14893  -0.0280  1.0000  0.0863  -1.2138   0.0000   0.0000   0.0000   0.1618
 -12.000  -0.3184   0.14770   0.14041  -0.0277  1.0000  0.0921  -1.1641   0.0000   0.0000   0.0000   0.1580
 -11.500  -0.3221   0.14449   0.13727  -0.0294  1.0000  0.0967  -1.2331   0.0000   0.0000   0.0000   0.1540
 -11.000  -0.3090   0.13700   0.12983  -0.0293  1.0000  0.1010  -1.2066   0.0000   0.0000   0.0000   0.1504
 -10.500  -0.3084   0.13246   0.12537  -0.0303  1.0000  0.1067  -1.2421   0.0000   0.0000   0.0000   0.1472
 -10.000  -0.3013   0.12601   0.11901  -0.0305  1.0000  0.1105  -1.2408   0.0000   0.0000   0.0000   0.1445
  -9.500  -0.2999   0.12100   0.11411  -0.0308  1.0000  0.1174  -1.2573   0.0000   0.0000   0.0000   0.1432
  -9.000  -0.2940   0.11463   0.10786  -0.0305  1.0000  0.1219  -1.2495   0.0000   0.0000   0.0000   0.1426
  -8.500  -0.2999   0.11042   0.10380  -0.0306  1.0000  0.1289  -1.2858   0.0000   0.0000   0.0000   0.1445
  -8.000  -0.2916   0.10361   0.09712  -0.0290  1.0000  0.1354  -1.2470   0.0000   0.0000   0.0000   0.1473
  -7.500  -0.3158   0.10135   0.09511  -0.0281  1.0000  0.1403  -1.3332   0.0000   0.0000   0.0000   0.1584
  -5.500  -0.3572   0.08426   0.07820  -0.0231  1.0000  0.1785  -1.4543   0.0000   0.0000   0.0000   0.1828
  -4.500  -0.3337   0.07295   0.06708  -0.0265  1.0000  0.2116  -1.4650   0.0000   0.0000   0.0000   0.1687
  -4.000  -0.3101   0.06689   0.06104  -0.0296  1.0000  0.2348  -1.4505   0.0000   0.0000   0.0000   0.1526
  -3.500  -0.1974   0.05047   0.04360  -0.0605  1.0000  0.1034  -1.8326   0.0000   0.0000   0.0000  -0.0597
  -3.000  -0.1032   0.03905   0.03081  -0.0754  1.0000  0.0857  -2.0095   0.0000   0.0000   0.0000  -0.4870
  -2.500  -0.0300   0.03346   0.02422  -0.0817  1.0000  0.0980  -1.8804   0.0000   0.0000   0.0000  -2.4905
  -2.000   0.0399   0.02927   0.01909  -0.0854  1.0000  0.1112  -1.7727   0.0000   0.0000   0.0000   2.4047
  -1.500   0.1003   0.02713   0.01644  -0.0871  1.0000  0.1455  -1.5871   0.0000   0.0000   0.0000   1.1223
  -1.000   0.1569   0.02596   0.01504  -0.0879  1.0000  0.2002  -1.3358   0.0000   0.0000   0.0000   0.8121
  -0.500   0.2167   0.02502   0.01436  -0.0898  1.0000  0.3271  -1.0998   0.0000   0.0000   0.0000   0.6650
   0.000   0.2963   0.02338   0.01403  -0.0945  0.9800  1.0000  -0.7865   0.0000   0.0000   0.0000   0.5688
   0.500   0.3846   0.02457   0.01447  -0.1020  0.9545  1.0000  -0.5363   0.0000   0.0000   0.0000   0.5142
   1.000   0.4716   0.02552   0.01502  -0.1087  0.9290  1.0000  -0.5931   0.0000   0.0000   0.0000   0.4792
   1.500   0.5472   0.02631   0.01561  -0.1130  0.9000  1.0000  -0.6483   0.0000   0.0000   0.0000   0.4547
   2.000   0.6206   0.02695   0.01617  -0.1164  0.8714  1.0000  -0.7083   0.0000   0.0000   0.0000   0.4353
   2.500   0.6977   0.02728   0.01657  -0.1197  0.8451  1.0000  -0.7795   0.0000   0.0000   0.0000   0.4190
   3.000   0.7644   0.02771   0.01710  -0.1210  0.8161  1.0000  -0.8573   0.0000   0.0000   0.0000   0.4052
   3.500   0.8330   0.02790   0.01752  -0.1220  0.7887  1.0000  -0.9804   0.0000   0.0000   0.0000   0.3929
   4.000   0.8991   0.02803   0.01792  -0.1221  0.7599  1.0000  -1.2014   0.0000   0.0000   0.0000   0.3818
   4.500   0.9607   0.02825   0.01850  -0.1212  0.7286  1.0000  -1.5027   0.0000   0.0000   0.0000   0.3717
   5.000   1.0236   0.02826   0.01889  -0.1199  0.6951  1.0000  -1.8736   0.0000   0.0000   0.0000   0.3621
   5.500   1.0812   0.02832   0.01945  -0.1173  0.6547  1.0000  -2.2661   0.0000   0.0000   0.0000   0.3530
   6.000   1.1375   0.02784   0.01933  -0.1132  0.6016  1.0000  -2.7179   0.0000   0.0000   0.0000   0.3434
   6.500   1.1808   0.02707   0.01868  -0.1061  0.5209  1.0000  -3.1781   0.0000   0.0000   0.0000   0.3331
   7.000   1.1992   0.02763   0.01918  -0.0969  0.4061  1.0000  -3.5122   0.0000   0.0000   0.0000   0.3233
   7.500   1.1890   0.03145   0.02181  -0.0860  0.2120  1.0000  -3.6532   0.0000   0.0000   0.0000   0.3142
   8.000   1.1853   0.03723   0.02667  -0.0785  0.1265  1.0000  -3.7512   0.0000   0.0000   0.0000   0.3074
   8.500   1.2093   0.04218   0.03150  -0.0736  0.0939  1.0000  -3.9621   0.0000   0.0000   0.0000   0.3014
   9.000   1.2755   0.04829   0.03791  -0.0729  0.0761  1.0000  -4.3521   0.0000   0.0000   0.0000   0.2971
   9.500   1.3086   0.05477   0.04503  -0.0699  0.0658  1.0000  -4.6143   0.0000   0.0000   0.0000   0.2928
  10.000   1.3297   0.06248   0.05343  -0.0662  0.0624  1.0000  -4.7735   0.0000   0.0000   0.0000   0.2885
  10.500   1.3318   0.07102   0.06256  -0.0618  0.0610  1.0000  -4.8467   0.0000   0.0000   0.0000   0.2846
  11.000   1.3046   0.07883   0.07097  -0.0560  0.0610  1.0000  -4.7892   0.0000   0.0000   0.0000   0.2806
  11.500   1.2528   0.08747   0.08033  -0.0531  0.0618  1.0000  -4.6035   0.0000   0.0000   0.0000   0.2794
  12.000   1.1850   0.10102   0.09446  -0.0584  0.0638  1.0000  -4.2615   0.0000   0.0000   0.0000   0.2857
  12.500   1.1256   0.11966   0.11338  -0.0708  0.0665  1.0000  -3.8474   0.0000   0.0000   0.0000   0.2989
  13.000   1.0922   0.13851   0.13225  -0.0829  0.0689  1.0000  -3.4809   0.0000   0.0000   0.0000   0.3116
  13.500   1.0839   0.15313   0.14683  -0.0904  0.0705  1.0000  -3.2828   0.0000   0.0000   0.0000   0.3187
  14.000   1.0645   0.17305   0.16660  -0.1043  0.0773  1.0000  -2.7933   0.0000   0.0000   0.0000   0.3332


