xflr5 v6.61

 Calculated polar for: BLD_0

 1 1 Reynolds number fixed          Mach number fixed         

 xtrf =   1.000 (top)        1.000 (bottom)
 Mach =   0.200     Re =     0.125 e 6     Ncrit =   9.000

  alpha     CL        CD       CDp       Cm    Top Xtr Bot Xtr   Cpmin    Chinge    XCp    
 ------- -------- --------- --------- -------- ------- ------- -------- --------- ---------
 -15.000  -0.4532   0.18990   0.18472  -0.0140  1.0000  0.0297  -1.3636   0.0000   0.0000   0.0000   0.2103
 -14.500  -0.4397   0.18396   0.17881  -0.0151  1.0000  0.0309  -1.3327   0.0000   0.0000   0.0000   0.2070
 -14.000  -0.4271   0.17828   0.17316  -0.0164  1.0000  0.0323  -1.3234   0.0000   0.0000   0.0000   0.2032
 -13.500  -0.4152   0.17262   0.16751  -0.0178  1.0000  0.0337  -1.3237   0.0000   0.0000   0.0000   0.1991
 -13.000  -0.4040   0.16708   0.16201  -0.0191  1.0000  0.0353  -1.3342   0.0000   0.0000   0.0000   0.1948
 -12.500  -0.3949   0.16229   0.15727  -0.0209  1.0000  0.0367  -1.3794   0.0000   0.0000   0.0000   0.1893
 -12.000  -0.3913   0.15900   0.15405  -0.0233  1.0000  0.0372  -1.4642   0.0000   0.0000   0.0000   0.1832
 -11.500  -0.3920   0.15611   0.15124  -0.0255  1.0000  0.0374  -1.5513   0.0000   0.0000   0.0000   0.1782
 -11.000  -0.3676   0.14483   0.13998  -0.0232  1.0000  0.0385  -1.3753   0.0000   0.0000   0.0000   0.1799
 -10.500  -0.3571   0.13902   0.13423  -0.0229  1.0000  0.0400  -1.3116   0.0000   0.0000   0.0000   0.1791
 -10.000  -0.3491   0.13374   0.12901  -0.0230  1.0000  0.0419  -1.2831   0.0000   0.0000   0.0000   0.1777
  -9.750  -0.3459   0.13118   0.12648  -0.0231  1.0000  0.0429  -1.2773   0.0000   0.0000   0.0000   0.1770
  -9.500  -0.3433   0.12874   0.12409  -0.0232  1.0000  0.0440  -1.2801   0.0000   0.0000   0.0000   0.1762
  -9.250  -0.3426   0.12675   0.12213  -0.0237  1.0000  0.0450  -1.3035   0.0000   0.0000   0.0000   0.1750
  -9.000  -0.3457   0.12553   0.12097  -0.0245  1.0000  0.0456  -1.3668   0.0000   0.0000   0.0000   0.1736
  -8.750  -0.3516   0.12463   0.12014  -0.0252  1.0000  0.0458  -1.4392   0.0000   0.0000   0.0000   0.1732
  -8.500  -0.3579   0.12359   0.11917  -0.0256  1.0000  0.0460  -1.5087   0.0000   0.0000   0.0000   0.1736
  -8.250  -0.3640   0.12230   0.11795  -0.0256  1.0000  0.0461  -1.5715   0.0000   0.0000   0.0000   0.1750
  -8.000  -0.3379   0.11419   0.10978  -0.0224  1.0000  0.0474  -1.3939   0.0000   0.0000   0.0000   0.1788
  -7.750  -0.3343   0.11151   0.10714  -0.0212  1.0000  0.0484  -1.3655   0.0000   0.0000   0.0000   0.1817
  -7.500  -0.3332   0.10922   0.10490  -0.0202  1.0000  0.0495  -1.3586   0.0000   0.0000   0.0000   0.1846
  -7.250  -0.3338   0.10710   0.10283  -0.0193  1.0000  0.0507  -1.3635   0.0000   0.0000   0.0000   0.1878
  -7.000  -0.3359   0.10513   0.10092  -0.0183  1.0000  0.0519  -1.3774   0.0000   0.0000   0.0000   0.1914
  -6.750  -0.3403   0.10336   0.09921  -0.0171  1.0000  0.0531  -1.4014   0.0000   0.0000   0.0000   0.1958
  -6.500  -0.3486   0.10203   0.09795  -0.0157  1.0000  0.0542  -1.4409   0.0000   0.0000   0.0000   0.2014
  -6.250  -0.3622   0.10128   0.09729  -0.0140  1.0000  0.0549  -1.4990   0.0000   0.0000   0.0000   0.2080
  -6.000  -0.3705   0.10013   0.09622  -0.0160  1.0000  0.0555  -1.5914   0.0000   0.0000   0.0000   0.2038
  -5.750  -0.3699   0.09807   0.09422  -0.0214  1.0000  0.0558  -1.7038   0.0000   0.0000   0.0000   0.1894
  -5.250  -0.3648   0.09143   0.08767  -0.0117  1.0000  0.0587  -1.5266   0.0000   0.0000   0.0000   0.2151
  -5.000  -0.3621   0.08910   0.08538  -0.0117  1.0000  0.0611  -1.5171   0.0000   0.0000   0.0000   0.2150
  -4.750  -0.3561   0.08644   0.08276  -0.0151  1.0000  0.0641  -1.5579   0.0000   0.0000   0.0000   0.2052
  -4.250  -0.3359   0.07966   0.07604  -0.0220  1.0000  0.0675  -1.6164   0.0000   0.0000   0.0000   0.1820
  -4.000  -0.3073   0.07302   0.06972  -0.0178  0.9968  0.0723  -1.4309   0.0000   0.0000   0.0000   0.1905
  -3.750  -0.2746   0.07086   0.06715  -0.0422  1.0000  0.0762  -1.7296   0.0000   0.0000   0.0000   0.0934
  -3.500  -0.2310   0.06239   0.05896  -0.0371  0.9838  0.0817  -1.4235   0.0000   0.0000   0.0000   0.0873
  -3.250  -0.2615   0.06611   0.06249  -0.0373  1.0000  0.0803  -1.5850   0.0000   0.0000   0.0000   0.1048
  -3.000  -0.1918   0.05979   0.05598  -0.0544  0.9949  0.0889  -1.5833   0.0000   0.0000   0.0000  -0.0372
  -2.750  -0.1263   0.05427   0.05028  -0.0686  0.9904  0.0992  -1.5491   0.0000   0.0000   0.0000  -0.2985
  -2.250   0.0660   0.03465   0.02914  -0.1089  0.9909  0.0671  -1.8894   0.0000   0.0000   0.0000   1.9102
  -2.000   0.1431   0.02844   0.02161  -0.1196  0.9919  0.0566  -2.0014   0.0000   0.0000   0.0000   1.0908
  -1.750   0.1982   0.02614   0.01865  -0.1247  0.9898  0.0563  -1.9429   0.0000   0.0000   0.0000   0.8827
  -1.500   0.2482   0.02466   0.01689  -0.1289  0.9870  0.0599  -1.8232   0.0000   0.0000   0.0000   0.7718
  -1.250   0.2956   0.02354   0.01563  -0.1324  0.9822  0.0708  -1.7133   0.0000   0.0000   0.0000   0.6995
  -1.000   0.3448   0.02280   0.01490  -0.1364  0.9780  0.1009  -1.5574   0.0000   0.0000   0.0000   0.6465
  -0.750   0.3903   0.02236   0.01460  -0.1399  0.9715  0.1540  -1.3441   0.0000   0.0000   0.0000   0.6089
  -0.500   0.4335   0.02210   0.01456  -0.1431  0.9639  0.2305  -1.1096   0.0000   0.0000   0.0000   0.5802
  -0.250   0.4770   0.02185   0.01471  -0.1464  0.9563  0.3489  -0.9068   0.0000   0.0000   0.0000   0.5567
   0.000   0.5259   0.02130   0.01474  -0.1503  0.9512  0.5182  -0.7088   0.0000   0.0000   0.0000   0.5352
   0.250   0.5519   0.02009   0.01442  -0.1486  0.9416  1.0000  -0.6299   0.0000   0.0000   0.0000   0.5185
   0.500   0.5944   0.02000   0.01407  -0.1512  0.9320  1.0000  -0.6699   0.0000   0.0000   0.0000   0.5032
   0.750   0.6360   0.01984   0.01375  -0.1534  0.9222  1.0000  -0.7120   0.0000   0.0000   0.0000   0.4898
   1.000   0.6777   0.01960   0.01338  -0.1556  0.9123  1.0000  -0.7558   0.0000   0.0000   0.0000   0.4779
   1.250   0.7198   0.01925   0.01294  -0.1576  0.9022  1.0000  -0.8024   0.0000   0.0000   0.0000   0.4670
   1.500   0.7619   0.01880   0.01243  -0.1596  0.8919  1.0000  -0.8542   0.0000   0.0000   0.0000   0.4572
   1.750   0.8038   0.01828   0.01187  -0.1613  0.8816  1.0000  -0.9111   0.0000   0.0000   0.0000   0.4482
   2.000   0.8456   0.01766   0.01124  -0.1629  0.8714  1.0000  -0.9726   0.0000   0.0000   0.0000   0.4399
   2.250   0.8878   0.01694   0.01053  -0.1644  0.8609  1.0000  -1.0355   0.0000   0.0000   0.0000   0.4322
   2.500   0.9313   0.01617   0.00978  -0.1662  0.8490  1.0000  -1.1030   0.0000   0.0000   0.0000   0.4251
   2.750   0.9786   0.01534   0.00897  -0.1686  0.8357  1.0000  -1.1831   0.0000   0.0000   0.0000   0.4187
   3.000   1.0213   0.01478   0.00845  -0.1702  0.8156  1.0000  -1.2620   0.0000   0.0000   0.0000   0.4128
   3.250   1.0683   0.01428   0.00794  -0.1727  0.7912  1.0000  -1.3508   0.0000   0.0000   0.0000   0.4076
   3.500   1.1111   0.01401   0.00760  -0.1745  0.7582  1.0000  -1.4360   0.0000   0.0000   0.0000   0.4027
   3.750   1.1484   0.01400   0.00749  -0.1753  0.7183  1.0000  -1.5385   0.0000   0.0000   0.0000   0.3979
   4.000   1.1798   0.01424   0.00754  -0.1750  0.6748  1.0000  -1.6401   0.0000   0.0000   0.0000   0.3933
   4.250   1.2063   0.01464   0.00773  -0.1739  0.6298  1.0000  -1.7346   0.0000   0.0000   0.0000   0.3888
   4.500   1.2295   0.01518   0.00803  -0.1722  0.5852  1.0000  -1.8243   0.0000   0.0000   0.0000   0.3844
   4.750   1.2505   0.01579   0.00842  -0.1702  0.5418  1.0000  -1.9109   0.0000   0.0000   0.0000   0.3802
   5.000   1.2703   0.01646   0.00895  -0.1681  0.5004  1.0000  -1.9960   0.0000   0.0000   0.0000   0.3761
   5.250   1.2894   0.01718   0.00947  -0.1660  0.4611  1.0000  -2.1299   0.0000   0.0000   0.0000   0.3721
   5.500   1.3073   0.01794   0.01002  -0.1637  0.4227  1.0000  -2.2692   0.0000   0.0000   0.0000   0.3683
   5.750   1.3243   0.01872   0.01060  -0.1612  0.3847  1.0000  -2.4084   0.0000   0.0000   0.0000   0.3645
   6.000   1.3409   0.01950   0.01120  -0.1588  0.3489  1.0000  -2.5492   0.0000   0.0000   0.0000   0.3609
   6.250   1.3579   0.02029   0.01185  -0.1566  0.3169  1.0000  -2.7113   0.0000   0.0000   0.0000   0.3574
   6.500   1.3757   0.02111   0.01255  -0.1545  0.2906  1.0000  -2.8853   0.0000   0.0000   0.0000   0.3541
   6.750   1.3938   0.02194   0.01331  -0.1525  0.2666  1.0000  -3.0630   0.0000   0.0000   0.0000   0.3508
   7.000   1.4112   0.02277   0.01419  -0.1504  0.2429  1.0000  -3.2414   0.0000   0.0000   0.0000   0.3476
   7.250   1.4280   0.02362   0.01500  -0.1483  0.2210  1.0000  -3.4210   0.0000   0.0000   0.0000   0.3445
   7.500   1.4443   0.02453   0.01586  -0.1460  0.2028  1.0000  -3.6003   0.0000   0.0000   0.0000   0.3415
   7.750   1.4614   0.02542   0.01682  -0.1439  0.1861  1.0000  -3.7817   0.0000   0.0000   0.0000   0.3385
   8.000   1.4765   0.02642   0.01782  -0.1415  0.1717  1.0000  -3.9577   0.0000   0.0000   0.0000   0.3355
   8.250   1.4914   0.02741   0.01888  -0.1391  0.1560  1.0000  -4.1324   0.0000   0.0000   0.0000   0.3325
   8.500   1.5040   0.02846   0.01997  -0.1364  0.1404  1.0000  -4.2995   0.0000   0.0000   0.0000   0.3295
   8.750   1.5160   0.02967   0.02124  -0.1336  0.1251  1.0000  -4.4576   0.0000   0.0000   0.0000   0.3266
   9.000   1.5253   0.03101   0.02262  -0.1305  0.1090  1.0000  -4.6013   0.0000   0.0000   0.0000   0.3237
   9.250   1.5327   0.03266   0.02432  -0.1272  0.0929  1.0000  -4.7219   0.0000   0.0000   0.0000   0.3207
   9.500   1.5378   0.03456   0.02632  -0.1237  0.0793  1.0000  -4.8182   0.0000   0.0000   0.0000   0.3178
   9.750   1.5420   0.03673   0.02853  -0.1203  0.0691  1.0000  -4.8955   0.0000   0.0000   0.0000   0.3149
  10.000   1.5470   0.03907   0.03097  -0.1170  0.0617  1.0000  -4.9668   0.0000   0.0000   0.0000   0.3122
  10.250   1.5513   0.04149   0.03333  -0.1141  0.0566  1.0000  -5.0598   0.0000   0.0000   0.0000   0.3097
  10.500   1.5594   0.04362   0.03576  -0.1114  0.0520  1.0000  -5.1474   0.0000   0.0000   0.0000   0.3072
  10.750   1.5650   0.04589   0.03808  -0.1089  0.0488  1.0000  -5.2539   0.0000   0.0000   0.0000   0.3049
  11.000   1.5749   0.04886   0.04116  -0.1068  0.0467  1.0000  -5.3749   0.0000   0.0000   0.0000   0.3027
  11.250   1.5831   0.05175   0.04439  -0.1046  0.0451  1.0000  -5.4820   0.0000   0.0000   0.0000   0.3005
  11.500   1.5882   0.05491   0.04787  -0.1023  0.0438  1.0000  -5.5753   0.0000   0.0000   0.0000   0.2984
  11.750   1.5894   0.05833   0.05160  -0.0999  0.0428  1.0000  -5.6503   0.0000   0.0000   0.0000   0.2965
  12.000   1.5866   0.06201   0.05562  -0.0977  0.0421  1.0000  -5.7064   0.0000   0.0000   0.0000   0.2948
  12.250   1.5801   0.06600   0.05993  -0.0956  0.0415  1.0000  -5.7428   0.0000   0.0000   0.0000   0.2933
  12.500   1.5702   0.07037   0.06460  -0.0940  0.0412  1.0000  -5.7595   0.0000   0.0000   0.0000   0.2922
  12.750   1.5571   0.07517   0.06971  -0.0929  0.0409  1.0000  -5.7551   0.0000   0.0000   0.0000   0.2915
  13.000   1.5408   0.08048   0.07533  -0.0925  0.0408  1.0000  -5.7282   0.0000   0.0000   0.0000   0.2915
  13.250   1.5217   0.08641   0.08156  -0.0931  0.0408  1.0000  -5.6777   0.0000   0.0000   0.0000   0.2922
  13.500   1.4998   0.09306   0.08852  -0.0948  0.0409  1.0000  -5.6012   0.0000   0.0000   0.0000   0.2937
  13.750   1.4748   0.10071   0.09647  -0.0980  0.0411  1.0000  -5.4903   0.0000   0.0000   0.0000   0.2965
  14.000   1.4453   0.10994   0.10599  -0.1033  0.0415  1.0000  -5.3271   0.0000   0.0000   0.0000   0.3011
  14.250   1.4118   0.12116   0.11746  -0.1110  0.0421  1.0000  -5.1021   0.0000   0.0000   0.0000   0.3080
  14.500   1.3724   0.13551   0.13206  -0.1221  0.0431  1.0000  -4.7722   0.0000   0.0000   0.0000   0.3181
  14.750   1.3249   0.15485   0.15152  -0.1370  0.0448  1.0000  -4.2501   0.0000   0.0000   0.0000   0.3327
  15.000   1.2951   0.17113   0.16778  -0.1482  0.0462  1.0000  -3.8030   0.0000   0.0000   0.0000   0.3439
  15.500   1.2790   0.19112   0.18772  -0.1603  0.0479  1.0000  -3.3561   0.0000   0.0000   0.0000   0.3546


