xflr5 v6.61

 Calculated polar for: BLD_50

 1 1 Reynolds number fixed          Mach number fixed         

 xtrf =   1.000 (top)        1.000 (bottom)
 Mach =   0.200     Re =     0.080 e 6     Ncrit =   7.000

  alpha     CL        CD       CDp       Cm    Top Xtr Bot Xtr   Cpmin    Chinge    XCp    
 ------- -------- --------- --------- -------- ------- ------- -------- --------- ---------
 -27.500  -0.8724   0.32944   0.32293   0.0805  1.0000  0.0169  -1.6700   0.0000   0.0000   0.0000   0.3215
 -27.000  -0.8575   0.32325   0.31670   0.0762  1.0000  0.0176  -1.6224   0.0000   0.0000   0.0000   0.3190
 -26.500  -0.8420   0.31786   0.31129   0.0716  1.0000  0.0182  -1.6055   0.0000   0.0000   0.0000   0.3160
 -26.000  -0.8261   0.31251   0.30591   0.0670  1.0000  0.0190  -1.5956   0.0000   0.0000   0.0000   0.3128
 -25.500  -0.8099   0.30710   0.30049   0.0624  1.0000  0.0198  -1.5878   0.0000   0.0000   0.0000   0.3095
 -25.000  -0.7934   0.30165   0.29503   0.0579  1.0000  0.0206  -1.5806   0.0000   0.0000   0.0000   0.3060
 -24.500  -0.7767   0.29624   0.28957   0.0533  1.0000  0.0213  -1.5756   0.0000   0.0000   0.0000   0.3024
 -24.000  -0.7597   0.29106   0.28438   0.0487  1.0000  0.0219  -1.5770   0.0000   0.0000   0.0000   0.2984
 -23.500  -0.7428   0.28642   0.27974   0.0439  1.0000  0.0222  -1.5856   0.0000   0.0000   0.0000   0.2940
 -23.000  -0.7265   0.28253   0.27584   0.0389  1.0000  0.0223  -1.6004   0.0000   0.0000   0.0000   0.2892
 -22.500  -0.7097   0.27613   0.26947   0.0349  1.0000  0.0225  -1.5696   0.0000   0.0000   0.0000   0.2853
 -22.000  -0.6923   0.26809   0.26142   0.0320  1.0000  0.0233  -1.4699   0.0000   0.0000   0.0000   0.2828
 -21.500  -0.6753   0.26219   0.25548   0.0283  1.0000  0.0244  -1.4143   0.0000   0.0000   0.0000   0.2791
 -21.000  -0.6580   0.25656   0.24985   0.0245  1.0000  0.0260  -1.4144   0.0000   0.0000   0.0000   0.2748
 -20.500  -0.6407   0.25132   0.24461   0.0204  1.0000  0.0274  -1.4435   0.0000   0.0000   0.0000   0.2699
 -20.000  -0.6247   0.24799   0.24130   0.0156  1.0000  0.0281  -1.5148   0.0000   0.0000   0.0000   0.2635
 -19.500  -0.6121   0.24686   0.24020   0.0106  1.0000  0.0284  -1.6052   0.0000   0.0000   0.0000   0.2564
 -19.000  -0.5913   0.23504   0.22840   0.0088  1.0000  0.0291  -1.5333   0.0000   0.0000   0.0000   0.2541
 -18.500  -0.5735   0.22751   0.22084   0.0065  1.0000  0.0302  -1.4660   0.0000   0.0000   0.0000   0.2508
 -18.000  -0.5566   0.22147   0.21481   0.0035  1.0000  0.0315  -1.4340   0.0000   0.0000   0.0000   0.2463
 -17.500  -0.5401   0.21560   0.20895   0.0006  1.0000  0.0330  -1.4131   0.0000   0.0000   0.0000   0.2413
 -17.000  -0.5240   0.20982   0.20319  -0.0024  1.0000  0.0346  -1.3987   0.0000   0.0000   0.0000   0.2359
 -16.500  -0.5084   0.20433   0.19773  -0.0056  1.0000  0.0362  -1.3983   0.0000   0.0000   0.0000   0.2298
 -16.000  -0.4950   0.20008   0.19351  -0.0093  1.0000  0.0371  -1.4305   0.0000   0.0000   0.0000   0.2225
 -15.500  -0.4869   0.19785   0.19134  -0.0133  1.0000  0.0375  -1.4961   0.0000   0.0000   0.0000   0.2142
 -15.000  -0.4640   0.18633   0.17980  -0.0132  1.0000  0.0393  -1.3337   0.0000   0.0000   0.0000   0.2131
 -14.500  -0.4492   0.18030   0.17380  -0.0151  1.0000  0.0417  -1.3040   0.0000   0.0000   0.0000   0.2082
 -14.000  -0.4359   0.17466   0.16820  -0.0173  1.0000  0.0440  -1.3276   0.0000   0.0000   0.0000   0.2023
 -13.500  -0.4269   0.17062   0.16422  -0.0204  1.0000  0.0457  -1.4095   0.0000   0.0000   0.0000   0.1945
 -13.000  -0.4256   0.16860   0.16228  -0.0240  1.0000  0.0462  -1.5320   0.0000   0.0000   0.0000   0.1864
 -12.500  -0.4008   0.15697   0.15068  -0.0229  1.0000  0.0481  -1.4059   0.0000   0.0000   0.0000   0.1856
 -12.000  -0.3884   0.15090   0.14465  -0.0238  1.0000  0.0507  -1.3876   0.0000   0.0000   0.0000   0.1815
 -11.500  -0.3788   0.14539   0.13920  -0.0253  1.0000  0.0536  -1.4066   0.0000   0.0000   0.0000   0.1763
 -11.000  -0.3763   0.14170   0.13560  -0.0280  1.0000  0.0555  -1.4962   0.0000   0.0000   0.0000   0.1691
 -10.500  -0.3817   0.13929   0.13332  -0.0310  1.0000  0.0560  -1.6203   0.0000   0.0000   0.0000   0.1628
 -10.000  -0.3533   0.12811   0.12210  -0.0282  1.0000  0.0591  -1.4325   0.0000   0.0000   0.0000   0.1640
  -9.500  -0.3464   0.12287   0.11695  -0.0287  1.0000  0.0632  -1.4270   0.0000   0.0000   0.0000   0.1612
  -9.000  -0.3546   0.12029   0.11453  -0.0310  1.0000  0.0656  -1.5442   0.0000   0.0000   0.0000   0.1573
  -8.500  -0.3379   0.11232   0.10663  -0.0289  1.0000  0.0693  -1.4289   0.0000   0.0000   0.0000   0.1595
  -8.000  -0.3389   0.10807   0.10251  -0.0284  1.0000  0.0740  -1.4419   0.0000   0.0000   0.0000   0.1615
  -7.500  -0.3642   0.10685   0.10154  -0.0276  1.0000  0.0756  -1.5739   0.0000   0.0000   0.0000   0.1704
  -7.000  -0.3511   0.09925   0.09403  -0.0241  1.0000  0.0785  -1.4612   0.0000   0.0000   0.0000   0.1776
  -6.500  -0.3568   0.09507   0.09000  -0.0216  1.0000  0.0824  -1.4699   0.0000   0.0000   0.0000   0.1864
  -6.000  -0.3635   0.09151   0.08662  -0.0291  1.0000  0.0863  -1.6315   0.0000   0.0000   0.0000   0.1674
  -5.500  -0.3562   0.08493   0.08015  -0.0236  1.0000  0.0894  -1.5585   0.0000   0.0000   0.0000   0.1813
  -5.000  -0.3314   0.07864   0.07387  -0.0375  1.0000  0.0973  -1.6942   0.0000   0.0000   0.0000   0.1345
  -4.500  -0.3214   0.07272   0.06800  -0.0318  1.0000  0.1017  -1.5940   0.0000   0.0000   0.0000   0.1490
  -4.000  -0.2831   0.06542   0.06065  -0.0407  1.0000  0.1109  -1.6102   0.0000   0.0000   0.0000   0.1040
  -3.500  -0.2292   0.05811   0.05318  -0.0517  1.0000  0.1311  -1.5869   0.0000   0.0000   0.0000   0.0221
  -3.000  -0.1591   0.05078   0.04563  -0.0627  0.9974  0.1538  -1.5023   0.0000   0.0000   0.0000  -0.1473
  -2.000   0.1246   0.02466   0.01551  -0.1048  0.9949  0.0684  -1.9612   0.0000   0.0000   0.0000   1.0963
  -1.500   0.2170   0.02318   0.01380  -0.1125  0.9841  0.1205  -1.6118   0.0000   0.0000   0.0000   0.7703
  -1.000   0.3068   0.02197   0.01272  -0.1193  0.9717  0.1984  -1.2107   0.0000   0.0000   0.0000   0.6398
  -0.500   0.3977   0.02063   0.01232  -0.1267  0.9598  0.4604  -0.8382   0.0000   0.0000   0.0000   0.5687
   0.000   0.4598   0.01948   0.01188  -0.1267  0.9384  1.0000  -0.5682   0.0000   0.0000   0.0000   0.5251
   0.500   0.5371   0.01960   0.01158  -0.1306  0.9169  1.0000  -0.6251   0.0000   0.0000   0.0000   0.4921
   1.000   0.6120   0.01954   0.01130  -0.1337  0.8940  1.0000  -0.6872   0.0000   0.0000   0.0000   0.4669
   1.500   0.6869   0.01924   0.01088  -0.1362  0.8711  1.0000  -0.7567   0.0000   0.0000   0.0000   0.4463
   2.000   0.7630   0.01876   0.01037  -0.1386  0.8477  1.0000  -0.8389   0.0000   0.0000   0.0000   0.4292
   2.500   0.8347   0.01829   0.00993  -0.1399  0.8203  1.0000  -0.9369   0.0000   0.0000   0.0000   0.4147
   3.000   0.9044   0.01787   0.00959  -0.1406  0.7882  1.0000  -1.0533   0.0000   0.0000   0.0000   0.4021
   3.500   0.9707   0.01767   0.00943  -0.1406  0.7504  1.0000  -1.2138   0.0000   0.0000   0.0000   0.3910
   4.000   1.0319   0.01776   0.00960  -0.1398  0.7071  1.0000  -1.4181   0.0000   0.0000   0.0000   0.3811
   4.500   1.0881   0.01813   0.00997  -0.1381  0.6590  1.0000  -1.7237   0.0000   0.0000   0.0000   0.3721
   5.000   1.1399   0.01871   0.01061  -0.1357  0.6063  1.0000  -2.0575   0.0000   0.0000   0.0000   0.3636
   5.500   1.1868   0.01951   0.01143  -0.1325  0.5489  1.0000  -2.4252   0.0000   0.0000   0.0000   0.3556
   6.000   1.2293   0.02048   0.01239  -0.1287  0.4850  1.0000  -2.7939   0.0000   0.0000   0.0000   0.3480
   6.500   1.2637   0.02169   0.01352  -0.1236  0.4046  1.0000  -3.1435   0.0000   0.0000   0.0000   0.3405
   7.000   1.2883   0.02350   0.01509  -0.1175  0.2984  1.0000  -3.4727   0.0000   0.0000   0.0000   0.3332
   7.500   1.3045   0.02653   0.01745  -0.1111  0.1797  1.0000  -3.7954   0.0000   0.0000   0.0000   0.3265
   8.000   1.3164   0.03049   0.02094  -0.1045  0.1046  1.0000  -4.0495   0.0000   0.0000   0.0000   0.3201
   8.500   1.3240   0.03466   0.02504  -0.0969  0.0749  1.0000  -4.2317   0.0000   0.0000   0.0000   0.3133
   9.000   1.3408   0.03890   0.02934  -0.0909  0.0617  1.0000  -4.4436   0.0000   0.0000   0.0000   0.3072
   9.500   1.3641   0.04313   0.03375  -0.0864  0.0515  1.0000  -4.7335   0.0000   0.0000   0.0000   0.3020
  10.000   1.3997   0.04883   0.03998  -0.0832  0.0463  1.0000  -5.0661   0.0000   0.0000   0.0000   0.2974
  10.500   1.4184   0.05521   0.04710  -0.0787  0.0436  1.0000  -5.2983   0.0000   0.0000   0.0000   0.2928
  11.000   1.4167   0.06208   0.05458  -0.0733  0.0422  1.0000  -5.4305   0.0000   0.0000   0.0000   0.2884
  11.500   1.3981   0.06971   0.06282  -0.0681  0.0416  1.0000  -5.4659   0.0000   0.0000   0.0000   0.2847
  12.000   1.3689   0.07838   0.07202  -0.0650  0.0412  1.0000  -5.4415   0.0000   0.0000   0.0000   0.2827
  12.500   1.3300   0.08864   0.08280  -0.0651  0.0411  1.0000  -5.3309   0.0000   0.0000   0.0000   0.2835
  13.000   1.2641   0.10466   0.09954  -0.0731  0.0428  1.0000  -4.9156   0.0000   0.0000   0.0000   0.2916
  13.500   1.1922   0.12878   0.12398  -0.0907  0.0450  1.0000  -4.2845   0.0000   0.0000   0.0000   0.3096
  14.000   1.1481   0.15420   0.14941  -0.1079  0.0475  1.0000  -3.6300   0.0000   0.0000   0.0000   0.3274
  14.500   1.1377   0.17056   0.16571  -0.1172  0.0488  1.0000  -3.3247   0.0000   0.0000   0.0000   0.3361
  15.000   1.1416   0.18192   0.17705  -0.1225  0.0499  1.0000  -3.2372   0.0000   0.0000   0.0000   0.3398


