xflr5 v6.61

 Calculated polar for: BLD_50

 1 1 Reynolds number fixed          Mach number fixed         

 xtrf =   1.000 (top)        1.000 (bottom)
 Mach =   0.200     Re =     0.090 e 6     Ncrit =   9.000

  alpha     CL        CD       CDp       Cm    Top Xtr Bot Xtr   Cpmin    Chinge    XCp    
 ------- -------- --------- --------- -------- ------- ------- -------- --------- ---------
 -23.000  -0.7257   0.28192   0.27565   0.0388  1.0000  0.0226  -1.5944   0.0000   0.0000   0.0000   0.2890
 -22.500  -0.7085   0.27380   0.26751   0.0358  1.0000  0.0233  -1.4965   0.0000   0.0000   0.0000   0.2866
 -22.000  -0.6916   0.26790   0.26160   0.0320  1.0000  0.0242  -1.4397   0.0000   0.0000   0.0000   0.2829
 -21.500  -0.6744   0.26218   0.25585   0.0281  1.0000  0.0252  -1.3950   0.0000   0.0000   0.0000   0.2789
 -21.000  -0.6571   0.25658   0.25025   0.0242  1.0000  0.0265  -1.3982   0.0000   0.0000   0.0000   0.2745
 -20.500  -0.6401   0.25269   0.24637   0.0195  1.0000  0.0280  -1.4598   0.0000   0.0000   0.0000   0.2686
 -20.000  -0.6281   0.25326   0.24697   0.0139  1.0000  0.0284  -1.5763   0.0000   0.0000   0.0000   0.2608
 -19.500  -0.6078   0.24170   0.23543   0.0117  1.0000  0.0290  -1.5299   0.0000   0.0000   0.0000   0.2581
 -19.000  -0.5895   0.23333   0.22706   0.0095  1.0000  0.0301  -1.4553   0.0000   0.0000   0.0000   0.2554
 -18.500  -0.5725   0.22723   0.22093   0.0066  1.0000  0.0314  -1.4265   0.0000   0.0000   0.0000   0.2511
 -18.000  -0.5558   0.22134   0.21506   0.0035  1.0000  0.0329  -1.4103   0.0000   0.0000   0.0000   0.2462
 -17.500  -0.5394   0.21553   0.20926   0.0004  1.0000  0.0345  -1.4002   0.0000   0.0000   0.0000   0.2410
 -17.000  -0.5235   0.21000   0.20375  -0.0028  1.0000  0.0361  -1.4017   0.0000   0.0000   0.0000   0.2352
 -16.500  -0.5095   0.20589   0.19968  -0.0067  1.0000  0.0371  -1.4378   0.0000   0.0000   0.0000   0.2278
 -16.000  -0.5003   0.20364   0.19747  -0.0108  1.0000  0.0374  -1.4997   0.0000   0.0000   0.0000   0.2198
 -15.500  -0.4794   0.19285   0.18671  -0.0116  1.0000  0.0383  -1.3926   0.0000   0.0000   0.0000   0.2172
 -15.000  -0.4630   0.18597   0.17981  -0.0130  1.0000  0.0404  -1.3060   0.0000   0.0000   0.0000   0.2135
 -14.500  -0.4488   0.18018   0.17405  -0.0151  1.0000  0.0432  -1.2803   0.0000   0.0000   0.0000   0.2081
 -14.000  -0.4382   0.17603   0.16996  -0.0183  1.0000  0.0456  -1.3517   0.0000   0.0000   0.0000   0.2004
 -13.500  -0.4375   0.17494   0.16894  -0.0223  1.0000  0.0461  -1.4853   0.0000   0.0000   0.0000   0.1918
 -13.000  -0.4124   0.16273   0.15676  -0.0213  1.0000  0.0479  -1.3700   0.0000   0.0000   0.0000   0.1908
 -12.500  -0.3992   0.15651   0.15057  -0.0223  1.0000  0.0505  -1.3495   0.0000   0.0000   0.0000   0.1868
 -12.000  -0.3887   0.15092   0.14503  -0.0239  1.0000  0.0535  -1.3687   0.0000   0.0000   0.0000   0.1815
 -11.500  -0.3857   0.14756   0.14176  -0.0268  1.0000  0.0555  -1.4650   0.0000   0.0000   0.0000   0.1738
 -11.000  -0.3930   0.14616   0.14048  -0.0303  1.0000  0.0560  -1.6074   0.0000   0.0000   0.0000   0.1668
 -10.500  -0.3608   0.13344   0.12771  -0.0272  1.0000  0.0594  -1.4023   0.0000   0.0000   0.0000   0.1682
 -10.000  -0.3527   0.12801   0.12235  -0.0279  1.0000  0.0629  -1.3998   0.0000   0.0000   0.0000   0.1648
  -9.750  -0.3518   0.12592   0.12032  -0.0288  1.0000  0.0646  -1.4290   0.0000   0.0000   0.0000   0.1623
  -9.500  -0.3559   0.12488   0.11934  -0.0302  1.0000  0.0655  -1.4935   0.0000   0.0000   0.0000   0.1596
  -9.250  -0.3632   0.12422   0.11878  -0.0316  1.0000  0.0658  -1.5687   0.0000   0.0000   0.0000   0.1579
  -9.000  -0.3467   0.11788   0.11245  -0.0297  1.0000  0.0671  -1.4643   0.0000   0.0000   0.0000   0.1591
  -8.750  -0.3392   0.11454   0.10913  -0.0287  1.0000  0.0695  -1.4078   0.0000   0.0000   0.0000   0.1602
  -8.500  -0.3372   0.11213   0.10677  -0.0284  1.0000  0.0721  -1.3993   0.0000   0.0000   0.0000   0.1606
  -8.250  -0.3406   0.11054   0.10526  -0.0287  1.0000  0.0745  -1.4327   0.0000   0.0000   0.0000   0.1608
  -8.000  -0.3520   0.11014   0.10497  -0.0291  1.0000  0.0754  -1.5068   0.0000   0.0000   0.0000   0.1630
  -7.750  -0.3673   0.10995   0.10491  -0.0285  1.0000  0.0757  -1.5807   0.0000   0.0000   0.0000   0.1685
  -7.500  -0.3404   0.10285   0.09777  -0.0263  1.0000  0.0792  -1.4109   0.0000   0.0000   0.0000   0.1686
  -7.250  -0.3420   0.10074   0.09573  -0.0249  1.0000  0.0817  -1.3985   0.0000   0.0000   0.0000   0.1731
  -7.000  -0.3495   0.09923   0.09431  -0.0234  1.0000  0.0838  -1.4150   0.0000   0.0000   0.0000   0.1794
  -6.750  -0.3621   0.09836   0.09356  -0.0226  1.0000  0.0854  -1.4653   0.0000   0.0000   0.0000   0.1843
  -6.500  -0.3717   0.09755   0.09286  -0.0265  1.0000  0.0863  -1.5663   0.0000   0.0000   0.0000   0.1758
  -6.250  -0.3668   0.09333   0.08869  -0.0229  1.0000  0.0877  -1.5105   0.0000   0.0000   0.0000   0.1848
  -6.000  -0.3625   0.09039   0.08579  -0.0203  1.0000  0.0901  -1.4707   0.0000   0.0000   0.0000   0.1912
  -5.750  -0.3614   0.08800   0.08346  -0.0204  1.0000  0.0931  -1.4780   0.0000   0.0000   0.0000   0.1911
  -5.500  -0.3561   0.08594   0.08145  -0.0301  1.0000  0.0969  -1.6005   0.0000   0.0000   0.0000   0.1631
  -5.250  -0.3533   0.08232   0.07789  -0.0271  1.0000  0.0983  -1.5689   0.0000   0.0000   0.0000   0.1709
  -5.000  -0.3488   0.07956   0.07517  -0.0245  1.0000  0.1011  -1.5268   0.0000   0.0000   0.0000   0.1775
  -4.750  -0.3239   0.07589   0.07143  -0.0381  1.0000  0.1081  -1.6390   0.0000   0.0000   0.0000   0.1301
  -4.500  -0.3240   0.07292   0.06851  -0.0321  1.0000  0.1099  -1.5668   0.0000   0.0000   0.0000   0.1486
  -4.250  -0.3117   0.07006   0.06565  -0.0331  1.0000  0.1152  -1.5432   0.0000   0.0000   0.0000   0.1418
  -4.000  -0.2898   0.06613   0.06169  -0.0388  1.0000  0.1211  -1.5586   0.0000   0.0000   0.0000   0.1140
  -3.750  -0.2601   0.06220   0.05766  -0.0462  1.0000  0.1307  -1.5696   0.0000   0.0000   0.0000   0.0700
  -3.000  -0.1915   0.05305   0.04841  -0.0540  1.0000  0.1669  -1.4411   0.0000   0.0000   0.0000  -0.0347
  -2.500  -0.0130   0.03392   0.02725  -0.0896  1.0000  0.0855  -1.8497   0.0000   0.0000   0.0000  -6.6905
  -2.250   0.0413   0.02930   0.02183  -0.0957  1.0000  0.0780  -1.8616   0.0000   0.0000   0.0000   2.5805
  -2.000   0.0852   0.02674   0.01859  -0.0991  1.0000  0.0787  -1.8284   0.0000   0.0000   0.0000   1.4197
  -1.750   0.1243   0.02509   0.01639  -0.1012  1.0000  0.0854  -1.7977   0.0000   0.0000   0.0000   1.0684
  -1.500   0.1556   0.02443   0.01563  -0.1025  1.0000  0.1063  -1.6959   0.0000   0.0000   0.0000   0.9116
  -1.250   0.1842   0.02413   0.01537  -0.1035  1.0000  0.1345  -1.5642   0.0000   0.0000   0.0000   0.8139
  -1.000   0.2319   0.02343   0.01457  -0.1074  0.9964  0.1645  -1.3907   0.0000   0.0000   0.0000   0.7143
  -0.750   0.2833   0.02282   0.01408  -0.1121  0.9902  0.2146  -1.1928   0.0000   0.0000   0.0000   0.6463
  -0.500   0.3345   0.02223   0.01390  -0.1169  0.9840  0.3193  -1.0062   0.0000   0.0000   0.0000   0.5998
  -0.250   0.3747   0.02035   0.01384  -0.1185  0.9805  0.8111  -0.8372   0.0000   0.0000   0.0000   0.5662
   0.000   0.4157   0.02056   0.01366  -0.1213  0.9662  1.0000  -0.6669   0.0000   0.0000   0.0000   0.5413
   0.250   0.4600   0.02085   0.01365  -0.1247  0.9545  1.0000  -0.5684   0.0000   0.0000   0.0000   0.5203
   0.500   0.5044   0.02105   0.01364  -0.1279  0.9429  1.0000  -0.6000   0.0000   0.0000   0.0000   0.5027
   0.750   0.5486   0.02116   0.01360  -0.1310  0.9314  1.0000  -0.6336   0.0000   0.0000   0.0000   0.4876
   1.000   0.5927   0.02117   0.01350  -0.1340  0.9199  1.0000  -0.6688   0.0000   0.0000   0.0000   0.4745
   1.250   0.6327   0.02114   0.01340  -0.1360  0.9069  1.0000  -0.7033   0.0000   0.0000   0.0000   0.4632
   1.500   0.6711   0.02106   0.01327  -0.1376  0.8932  1.0000  -0.7389   0.0000   0.0000   0.0000   0.4531
   1.750   0.7123   0.02082   0.01301  -0.1395  0.8809  1.0000  -0.7801   0.0000   0.0000   0.0000   0.4436
   2.000   0.7541   0.02046   0.01264  -0.1412  0.8691  1.0000  -0.8248   0.0000   0.0000   0.0000   0.4349
   2.250   0.7970   0.01999   0.01221  -0.1430  0.8576  1.0000  -0.8758   0.0000   0.0000   0.0000   0.4269
   2.500   0.8390   0.01945   0.01171  -0.1445  0.8457  1.0000  -0.9340   0.0000   0.0000   0.0000   0.4194
   2.750   0.8738   0.01913   0.01143  -0.1447  0.8297  1.0000  -0.9884   0.0000   0.0000   0.0000   0.4125
   3.000   0.9132   0.01862   0.01099  -0.1455  0.8152  1.0000  -1.0566   0.0000   0.0000   0.0000   0.4061
   3.250   0.9490   0.01827   0.01069  -0.1457  0.7982  1.0000  -1.1319   0.0000   0.0000   0.0000   0.4000
   3.500   0.9867   0.01787   0.01032  -0.1462  0.7811  1.0000  -1.2326   0.0000   0.0000   0.0000   0.3944
   3.750   1.0187   0.01773   0.01024  -0.1458  0.7603  1.0000  -1.3260   0.0000   0.0000   0.0000   0.3890
   4.000   1.0502   0.01765   0.01017  -0.1452  0.7383  1.0000  -1.4592   0.0000   0.0000   0.0000   0.3840
   4.250   1.0799   0.01768   0.01021  -0.1444  0.7149  1.0000  -1.6160   0.0000   0.0000   0.0000   0.3791
   4.500   1.1067   0.01783   0.01038  -0.1431  0.6893  1.0000  -1.7690   0.0000   0.0000   0.0000   0.3745
   4.750   1.1341   0.01799   0.01052  -0.1419  0.6633  1.0000  -1.9355   0.0000   0.0000   0.0000   0.3700
   5.000   1.1593   0.01826   0.01085  -0.1404  0.6357  1.0000  -2.1200   0.0000   0.0000   0.0000   0.3657
   5.250   1.1846   0.01855   0.01110  -0.1389  0.6077  1.0000  -2.3113   0.0000   0.0000   0.0000   0.3615
   5.500   1.2072   0.01892   0.01148  -0.1370  0.5771  1.0000  -2.4971   0.0000   0.0000   0.0000   0.3574
   5.750   1.2290   0.01932   0.01187  -0.1349  0.5451  1.0000  -2.6842   0.0000   0.0000   0.0000   0.3534
   6.000   1.2493   0.01975   0.01225  -0.1326  0.5101  1.0000  -2.8699   0.0000   0.0000   0.0000   0.3495
   6.250   1.2665   0.02023   0.01269  -0.1298  0.4695  1.0000  -3.0461   0.0000   0.0000   0.0000   0.3455
   6.500   1.2809   0.02077   0.01311  -0.1266  0.4231  1.0000  -3.2147   0.0000   0.0000   0.0000   0.3415
   6.750   1.2929   0.02144   0.01377  -0.1232  0.3698  1.0000  -3.3732   0.0000   0.0000   0.0000   0.3376
   7.000   1.3022   0.02241   0.01449  -0.1196  0.3084  1.0000  -3.5452   0.0000   0.0000   0.0000   0.3338
   7.250   1.3095   0.02381   0.01555  -0.1160  0.2442  1.0000  -3.7019   0.0000   0.0000   0.0000   0.3302
   7.500   1.3140   0.02571   0.01703  -0.1122  0.1842  1.0000  -3.8310   0.0000   0.0000   0.0000   0.3267
   7.750   1.3166   0.02800   0.01894  -0.1081  0.1355  1.0000  -3.9258   0.0000   0.0000   0.0000   0.3231
   8.000   1.3196   0.03042   0.02110  -0.1041  0.1067  1.0000  -3.9987   0.0000   0.0000   0.0000   0.3196
   8.250   1.3265   0.03279   0.02328  -0.1006  0.0901  1.0000  -4.0826   0.0000   0.0000   0.0000   0.3162
   8.500   1.3430   0.03533   0.02567  -0.0985  0.0793  1.0000  -4.1959   0.0000   0.0000   0.0000   0.3134
   8.750   1.3615   0.03744   0.02790  -0.0967  0.0707  1.0000  -4.3311   0.0000   0.0000   0.0000   0.3107
   9.000   1.3816   0.03982   0.03048  -0.0952  0.0641  1.0000  -4.4647   0.0000   0.0000   0.0000   0.3083
   9.250   1.4104   0.04301   0.03365  -0.0952  0.0601  1.0000  -4.6890   0.0000   0.0000   0.0000   0.3065
   9.500   1.4314   0.04647   0.03754  -0.0937  0.0581  1.0000  -4.8268   0.0000   0.0000   0.0000   0.3041
   9.750   1.4442   0.04995   0.04152  -0.0912  0.0568  1.0000  -4.9208   0.0000   0.0000   0.0000   0.3015
  10.000   1.4507   0.05364   0.04576  -0.0883  0.0561  1.0000  -4.9838   0.0000   0.0000   0.0000   0.2989
  10.250   1.4505   0.05743   0.05001  -0.0848  0.0559  1.0000  -5.0160   0.0000   0.0000   0.0000   0.2962
  10.500   1.4435   0.06115   0.05415  -0.0809  0.0558  1.0000  -5.0218   0.0000   0.0000   0.0000   0.2934
  10.750   1.4305   0.06468   0.05805  -0.0766  0.0557  1.0000  -5.0099   0.0000   0.0000   0.0000   0.2907
  11.000   1.4138   0.06832   0.06202  -0.0726  0.0557  1.0000  -4.9843   0.0000   0.0000   0.0000   0.2882
  11.250   1.3946   0.07224   0.06625  -0.0694  0.0557  1.0000  -4.9457   0.0000   0.0000   0.0000   0.2863
  11.500   1.3734   0.07658   0.07086  -0.0671  0.0558  1.0000  -4.8935   0.0000   0.0000   0.0000   0.2850
  11.750   1.3507   0.08142   0.07597  -0.0658  0.0561  1.0000  -4.8280   0.0000   0.0000   0.0000   0.2846
  12.000   1.3271   0.08683   0.08161  -0.0658  0.0565  1.0000  -4.7504   0.0000   0.0000   0.0000   0.2851
  12.250   1.3033   0.09285   0.08784  -0.0670  0.0571  1.0000  -4.6625   0.0000   0.0000   0.0000   0.2866
  12.500   1.2799   0.09947   0.09464  -0.0694  0.0577  1.0000  -4.5651   0.0000   0.0000   0.0000   0.2890
  12.750   1.2583   0.10659   0.10190  -0.0727  0.0583  1.0000  -4.4645   0.0000   0.0000   0.0000   0.2922
  13.000   1.2395   0.11400   0.10941  -0.0765  0.0588  1.0000  -4.3657   0.0000   0.0000   0.0000   0.2959
  13.250   1.2245   0.12147   0.11687  -0.0803  0.0593  1.0000  -4.2755   0.0000   0.0000   0.0000   0.2994
  13.500   1.1021   0.17595   0.17136  -0.1236  0.1329  1.0000  -2.2765   0.0000   0.0000   0.0000   0.3479
  14.000   1.0976   0.18810   0.18346  -0.1317  0.1355  1.0000  -2.1432   0.0000   0.0000   0.0000   0.3551
  14.500   1.1178   0.19716   0.19257  -0.1329  0.1317  1.0000  -2.2272   0.0000   0.0000   0.0000   0.3534
  14.750   1.1174   0.20232   0.19770  -0.1365  0.1301  1.0000  -2.1817   0.0000   0.0000   0.0000   0.3563
  15.000   1.1123   0.20608   0.20141  -0.1413  0.1250  1.0000  -2.1093   0.0000   0.0000   0.0000   0.3608
  15.500   1.1328   0.21529   0.21065  -0.1430  0.1198  1.0000  -2.1826   0.0000   0.0000   0.0000   0.3593
  16.000   1.1489   0.22361   0.21898  -0.1458  0.1098  1.0000  -2.2328   0.0000   0.0000   0.0000   0.3591
  16.500   1.1522   0.22995   0.22530  -0.1528  0.1014  1.0000  -2.1649   0.0000   0.0000   0.0000   0.3641
  17.000   1.1603   0.23796   0.23327  -0.1594  0.0966  1.0000  -2.0959   0.0000   0.0000   0.0000   0.3681
  17.500   1.1852   0.24686   0.24223  -0.1598  0.0901  1.0000  -2.2401   0.0000   0.0000   0.0000   0.3647
  18.000   1.1880   0.25319   0.24850  -0.1692  0.0858  1.0000  -2.1193   0.0000   0.0000   0.0000   0.3714
  18.500   1.2115   0.26195   0.25733  -0.1701  0.0800  1.0000  -2.2823   0.0000   0.0000   0.0000   0.3684
  19.000   1.2180   0.26809   0.26347  -0.1790  0.0762  1.0000  -2.1679   0.0000   0.0000   0.0000   0.3741
  19.500   1.2464   0.27986   0.27531  -0.1775  0.0693  1.0000  -2.3987   0.0000   0.0000   0.0000   0.3686
  20.000   1.2485   0.28227   0.27766  -0.1891  0.0653  1.0000  -2.1974   0.0000   0.0000   0.0000   0.3767


