xflr5 v6.61

 Calculated polar for: BLD_100

 1 1 Reynolds number fixed          Mach number fixed         

 xtrf =   1.000 (top)        1.000 (bottom)
 Mach =   0.200     Re =     0.025 e 6     Ncrit =   7.000

  alpha     CL        CD       CDp       Cm    Top Xtr Bot Xtr   Cpmin    Chinge    XCp    
 ------- -------- --------- --------- -------- ------- ------- -------- --------- ---------
 -23.000  -0.8091   0.29005   0.27902   0.0657  1.0000  0.0757  -1.5892   0.0000   0.0000   0.0000   0.3173
 -22.500  -0.7912   0.28414   0.27309   0.0613  1.0000  0.0793  -1.5711   0.0000   0.0000   0.0000   0.3142
 -22.000  -0.7747   0.28033   0.26927   0.0564  1.0000  0.0823  -1.5745   0.0000   0.0000   0.0000   0.3101
 -21.500  -0.7608   0.27968   0.26864   0.0509  1.0000  0.0836  -1.6012   0.0000   0.0000   0.0000   0.3049
 -21.000  -0.7385   0.26732   0.25623   0.0481  1.0000  0.0873  -1.5307   0.0000   0.0000   0.0000   0.3034
 -20.500  -0.7208   0.26195   0.25085   0.0438  1.0000  0.0919  -1.5090   0.0000   0.0000   0.0000   0.2996
 -20.000  -0.7073   0.26075   0.24967   0.0386  1.0000  0.0945  -1.5251   0.0000   0.0000   0.0000   0.2941
 -19.500  -0.6852   0.25000   0.23892   0.0357  1.0000  0.0992  -1.4787   0.0000   0.0000   0.0000   0.2920
 -19.000  -0.6689   0.24569   0.23462   0.0315  1.0000  0.1044  -1.4862   0.0000   0.0000   0.0000   0.2873
 -18.500  -0.6521   0.24006   0.22904   0.0274  1.0000  0.1073  -1.4904   0.0000   0.0000   0.0000   0.2828
 -18.000  -0.6325   0.23262   0.22154   0.0243  1.0000  0.1134  -1.4636   0.0000   0.0000   0.0000   0.2794
 -17.500  -0.6209   0.23091   0.21989   0.0196  1.0000  0.1170  -1.4944   0.0000   0.0000   0.0000   0.2732
 -17.000  -0.5978   0.22058   0.20956   0.0172  1.0000  0.1231  -1.4433   0.0000   0.0000   0.0000   0.2706
 -16.500  -0.5863   0.21805   0.20708   0.0130  1.0000  0.1282  -1.4622   0.0000   0.0000   0.0000   0.2645
 -16.000  -0.5645   0.20876   0.19781   0.0106  1.0000  0.1355  -1.4128   0.0000   0.0000   0.0000   0.2613
 -15.500  -0.5517   0.20434   0.19343   0.0071  1.0000  0.1412  -1.4135   0.0000   0.0000   0.0000   0.2557
 -15.000  -0.5361   0.19851   0.18763   0.0043  1.0000  0.1503  -1.3980   0.0000   0.0000   0.0000   0.2511
 -14.500  -0.5172   0.19073   0.17989   0.0020  1.0000  0.1584  -1.3856   0.0000   0.0000   0.0000   0.2470
 -14.000  -0.5038   0.18510   0.17433  -0.0008  1.0000  0.1655  -1.3962   0.0000   0.0000   0.0000   0.2419
 -13.500  -0.4957   0.18145   0.17075  -0.0037  1.0000  0.1741  -1.4200   0.0000   0.0000   0.0000   0.2364
 -13.000  -0.4783   0.17381   0.16313  -0.0056  1.0000  0.1848  -1.4039   0.0000   0.0000   0.0000   0.2324
 -12.500  -0.4646   0.16739   0.15678  -0.0075  1.0000  0.1961  -1.3976   0.0000   0.0000   0.0000   0.2281
 -12.000  -0.4544   0.16182   0.15130  -0.0094  1.0000  0.2083  -1.3982   0.0000   0.0000   0.0000   0.2239
 -11.500  -0.4416   0.15508   0.14466  -0.0108  1.0000  0.2214  -1.3857   0.0000   0.0000   0.0000   0.2201
 -11.000  -0.4247   0.14751   0.13714  -0.0117  1.0000  0.2380  -1.3536   0.0000   0.0000   0.0000   0.2171
 -10.500  -0.4187   0.14245   0.13216  -0.0129  1.0000  0.2537  -1.3529   0.0000   0.0000   0.0000   0.2140
 -10.000  -0.4033   0.13503   0.12483  -0.0135  1.0000  0.2714  -1.3244   0.0000   0.0000   0.0000   0.2116
  -9.500  -0.3939   0.12890   0.11882  -0.0138  1.0000  0.2930  -1.3297   0.0000   0.0000   0.0000   0.2102
  -9.000  -0.3853   0.12295   0.11300  -0.0134  1.0000  0.3207  -1.3300   0.0000   0.0000   0.0000   0.2106
  -8.500  -0.3737   0.11632   0.10650  -0.0124  1.0000  0.3529  -1.3190   0.0000   0.0000   0.0000   0.2123
  -8.000  -0.3676   0.11066   0.10097  -0.0106  1.0000  0.3901  -1.3129   0.0000   0.0000   0.0000   0.2168
  -7.500  -0.3582   0.10443   0.09490  -0.0078  1.0000  0.4368  -1.2927   0.0000   0.0000   0.0000   0.2239
  -7.000  -0.3378   0.09684   0.08741  -0.0031  1.0000  0.5170  -1.2391   0.0000   0.0000   0.0000   0.2365
  -6.000  -0.0992   0.06269   0.05250  -0.0211  1.0000  0.9685  -0.9750   0.0000   0.0000   0.0000   0.0218
  -5.000  -0.2760   0.07108   0.06218   0.0085  1.0000  0.7033  -1.1691   0.0000   0.0000   0.0000   0.2769
  -4.000  -0.2768   0.06172   0.05255  -0.0450  1.0000  0.1947  -1.7134   0.0000   0.0000   0.0000   0.0854
  -3.500  -0.2225   0.05378   0.04403  -0.0532  1.0000  0.1828  -1.7419   0.0000   0.0000   0.0000   0.0082
  -3.000  -0.1609   0.04661   0.03609  -0.0602  1.0000  0.1802  -1.7207   0.0000   0.0000   0.0000  -0.1273
  -2.500  -0.0960   0.04078   0.02924  -0.0655  1.0000  0.1900  -1.6399   0.0000   0.0000   0.0000  -0.4367
  -2.000  -0.0317   0.03655   0.02393  -0.0686  1.0000  0.2159  -1.5351   0.0000   0.0000   0.0000  -1.9321
  -1.500   0.0321   0.03346   0.01990  -0.0706  1.0000  0.2665  -1.3794   0.0000   0.0000   0.0000   2.4601
  -1.000   0.0926   0.03059   0.01694  -0.0715  1.0000  0.3740  -1.2065   0.0000   0.0000   0.0000   1.0255
  -0.500   0.1299   0.02659   0.01472  -0.0672  1.0000  1.0000  -1.0919   0.0000   0.0000   0.0000   0.7681
   0.000   0.1786   0.02779   0.01431  -0.0675  1.0000  1.0000  -0.8833   0.0000   0.0000   0.0000   0.6280
   0.500   0.2207   0.02920   0.01494  -0.0675  1.0000  1.0000  -0.6768   0.0000   0.0000   0.0000   0.5550
   1.000   0.2604   0.03088   0.01606  -0.0676  1.0000  1.0000  -0.4992   0.0000   0.0000   0.0000   0.5081
   1.500   0.2983   0.03283   0.01764  -0.0678  1.0000  1.0000  -0.4945   0.0000   0.0000   0.0000   0.4756
   2.000   0.3345   0.03504   0.01958  -0.0682  1.0000  1.0000  -0.5143   0.0000   0.0000   0.0000   0.4518
   2.500   0.3830   0.03775   0.02212  -0.0714  0.9919  1.0000  -0.5425   0.0000   0.0000   0.0000   0.4337
   3.000   0.4640   0.04114   0.02544  -0.0802  0.9611  1.0000  -0.5948   0.0000   0.0000   0.0000   0.4199
   3.500   0.5358   0.04440   0.02879  -0.0869  0.9309  1.0000  -0.6473   0.0000   0.0000   0.0000   0.4088
   4.000   0.6007   0.04761   0.03224  -0.0920  0.9010  1.0000  -0.7032   0.0000   0.0000   0.0000   0.3994
   4.500   0.6549   0.05084   0.03576  -0.0951  0.8709  1.0000  -0.8021   0.0000   0.0000   0.0000   0.3909
   5.000   0.7096   0.05423   0.03958  -0.0980  0.8409  1.0000  -0.9979   0.0000   0.0000   0.0000   0.3833
   5.500   0.7648   0.05775   0.04359  -0.1005  0.8097  1.0000  -1.2473   0.0000   0.0000   0.0000   0.3763
   6.000   0.8131   0.06138   0.04786  -0.1017  0.7762  1.0000  -1.5142   0.0000   0.0000   0.0000   0.3695
   6.500   0.8512   0.06522   0.05232  -0.1013  0.7390  1.0000  -1.7810   0.0000   0.0000   0.0000   0.3629
   7.000   0.8986   0.06877   0.05673  -0.1007  0.6938  1.0000  -2.1228   0.0000   0.0000   0.0000   0.3555
   7.500   1.0941   0.04236   0.03270  -0.0691  0.3906  1.0000  -3.4138   0.0000   0.0000   0.0000   0.3058
   8.000   1.0974   0.04673   0.03485  -0.0577  0.2226  1.0000  -3.4780   0.0000   0.0000   0.0000   0.2945
   8.500   1.1275   0.05355   0.04123  -0.0537  0.1695  1.0000  -3.6518   0.0000   0.0000   0.0000   0.2890
   9.000   1.1662   0.06139   0.04970  -0.0515  0.1434  1.0000  -3.8161   0.0000   0.0000   0.0000   0.2850
   9.500   1.1855   0.06994   0.05907  -0.0490  0.1306  1.0000  -3.9015   0.0000   0.0000   0.0000   0.2817
  10.000   1.1813   0.07914   0.06896  -0.0464  0.1260  1.0000  -3.8910   0.0000   0.0000   0.0000   0.2791
  10.500   1.1502   0.08915   0.07954  -0.0450  0.1262  1.0000  -3.7711   0.0000   0.0000   0.0000   0.2785
  11.000   1.1154   0.10097   0.09171  -0.0474  0.1273  1.0000  -3.6133   0.0000   0.0000   0.0000   0.2815
  11.500   1.0501   0.11933   0.11020  -0.0597  0.1355  1.0000  -3.1988   0.0000   0.0000   0.0000   0.2955
  12.000   1.0312   0.13443   0.12522  -0.0676  0.1377  1.0000  -2.9981   0.0000   0.0000   0.0000   0.3039
  12.500   1.0066   0.15102   0.14163  -0.0789  0.1449  1.0000  -2.7012   0.0000   0.0000   0.0000   0.3163
  13.000   1.0073   0.16301   0.15354  -0.0844  0.1476  1.0000  -2.5928   0.0000   0.0000   0.0000   0.3213
  13.500   1.0042   0.17553   0.16598  -0.0921  0.1569  1.0000  -2.4283   0.0000   0.0000   0.0000   0.3288
  14.000   1.0135   0.18755   0.17799  -0.0979  0.1701  1.0000  -2.3274   0.0000   0.0000   0.0000   0.3333
  14.500   0.7635   0.18890   0.17989  -0.0843  0.3249  1.0000  -1.4779   0.0000   0.0000   0.0000   0.3488
  15.000   0.7610   0.19448   0.18551  -0.0858  0.3242  1.0000  -1.4317   0.0000   0.0000   0.0000   0.3507
  15.500   0.7616   0.19977   0.19089  -0.0869  0.3149  1.0000  -1.3982   0.0000   0.0000   0.0000   0.3516
  16.000   0.7597   0.20454   0.19570  -0.0883  0.3082  1.0000  -1.3543   0.0000   0.0000   0.0000   0.3532
  16.500   0.7637   0.21042   0.20163  -0.0895  0.2980  1.0000  -1.3254   0.0000   0.0000   0.0000   0.3537
  17.000   0.7684   0.21621   0.20748  -0.0907  0.2848  1.0000  -1.3181   0.0000   0.0000   0.0000   0.3540
  17.500   0.7739   0.22226   0.21359  -0.0919  0.2725  1.0000  -1.3134   0.0000   0.0000   0.0000   0.3542
  18.000   0.7781   0.22810   0.21951  -0.0934  0.2621  1.0000  -1.3002   0.0000   0.0000   0.0000   0.3548
  18.500   0.7837   0.23424   0.22571  -0.0948  0.2502  1.0000  -1.2901   0.0000   0.0000   0.0000   0.3551
  19.000   0.7908   0.24089   0.23242  -0.0961  0.2376  1.0000  -1.2829   0.0000   0.0000   0.0000   0.3551
  19.500   0.7961   0.24712   0.23871  -0.0976  0.2264  1.0000  -1.2666   0.0000   0.0000   0.0000   0.3556
  20.000   0.7989   0.25256   0.24420  -0.0994  0.2169  1.0000  -1.2401   0.0000   0.0000   0.0000   0.3567


