xflr5 v6.61

 Calculated polar for: BLD_75

 1 1 Reynolds number fixed          Mach number fixed         

 xtrf =   1.000 (top)        1.000 (bottom)
 Mach =   0.200     Re =     0.100 e 6     Ncrit =   7.000

  alpha     CL        CD       CDp       Cm    Top Xtr Bot Xtr   Cpmin    Chinge    XCp    
 ------- -------- --------- --------- -------- ------- ------- -------- --------- ---------
 -18.500  -0.6014   0.22850   0.22263   0.0163  1.0000  0.0236  -1.4794   0.0000   0.0000   0.0000   0.2670
 -18.000  -0.5837   0.22233   0.21648   0.0129  1.0000  0.0250  -1.4633   0.0000   0.0000   0.0000   0.2623
 -17.500  -0.5661   0.21626   0.21042   0.0093  1.0000  0.0263  -1.4721   0.0000   0.0000   0.0000   0.2570
 -17.000  -0.5490   0.21085   0.20502   0.0053  1.0000  0.0277  -1.5142   0.0000   0.0000   0.0000   0.2505
 -16.500  -0.5359   0.20788   0.20209   0.0003  1.0000  0.0284  -1.6096   0.0000   0.0000   0.0000   0.2418
 -16.000  -0.5270   0.20574   0.19998  -0.0044  1.0000  0.0286  -1.6987   0.0000   0.0000   0.0000   0.2333
 -15.500  -0.5002   0.19164   0.18585  -0.0043  1.0000  0.0298  -1.5053   0.0000   0.0000   0.0000   0.2332
 -15.000  -0.4836   0.18510   0.17932  -0.0066  1.0000  0.0312  -1.4407   0.0000   0.0000   0.0000   0.2283
 -14.500  -0.4680   0.17890   0.17315  -0.0092  1.0000  0.0328  -1.4012   0.0000   0.0000   0.0000   0.2225
 -14.000  -0.4531   0.17277   0.16704  -0.0119  1.0000  0.0347  -1.3762   0.0000   0.0000   0.0000   0.2161
 -13.500  -0.4399   0.16722   0.16152  -0.0151  1.0000  0.0367  -1.3885   0.0000   0.0000   0.0000   0.2082
 -13.000  -0.4344   0.16399   0.15836  -0.0196  1.0000  0.0374  -1.5053   0.0000   0.0000   0.0000   0.1978
 -12.500  -0.4144   0.15425   0.14866  -0.0197  1.0000  0.0389  -1.4249   0.0000   0.0000   0.0000   0.1954
 -12.000  -0.4004   0.14784   0.14228  -0.0211  1.0000  0.0413  -1.4023   0.0000   0.0000   0.0000   0.1904
 -11.500  -0.3891   0.14191   0.13635  -0.0233  1.0000  0.0440  -1.4341   0.0000   0.0000   0.0000   0.1836
 -11.000  -0.3856   0.13794   0.13246  -0.0270  1.0000  0.0459  -1.5610   0.0000   0.0000   0.0000   0.1737
 -10.500  -0.3893   0.13494   0.12957  -0.0312  1.0000  0.0462  -1.7193   0.0000   0.0000   0.0000   0.1641
 -10.000  -0.3606   0.12364   0.11827  -0.0281  1.0000  0.0489  -1.5186   0.0000   0.0000   0.0000   0.1661
  -9.500  -0.3516   0.11791   0.11261  -0.0289  1.0000  0.0517  -1.5111   0.0000   0.0000   0.0000   0.1621
  -9.000  -0.3493   0.11316   0.10797  -0.0307  1.0000  0.0549  -1.5753   0.0000   0.0000   0.0000   0.1569
  -8.500  -0.3612   0.11040   0.10539  -0.0333  1.0000  0.0558  -1.7358   0.0000   0.0000   0.0000   0.1532
  -8.000  -0.3445   0.10209   0.09714  -0.0306  1.0000  0.0579  -1.6093   0.0000   0.0000   0.0000   0.1568
  -7.500  -0.3436   0.09739   0.09256  -0.0286  1.0000  0.0621  -1.5712   0.0000   0.0000   0.0000   0.1626
  -7.000  -0.3644   0.09468   0.09007  -0.0269  1.0000  0.0651  -1.6712   0.0000   0.0000   0.0000   0.1729
  -6.000  -0.3663   0.08436   0.08001  -0.0244  1.0000  0.0712  -1.6291   0.0000   0.0000   0.0000   0.1808
  -5.500  -0.3514   0.07807   0.07374  -0.0388  1.0000  0.0761  -1.8301   0.0000   0.0000   0.0000   0.1372
  -5.000  -0.3459   0.07230   0.06804  -0.0318  1.0000  0.0790  -1.6592   0.0000   0.0000   0.0000   0.1559
  -3.500  -0.1131   0.03715   0.03128  -0.0806  0.9882  0.0545  -2.2044   0.0000   0.0000   0.0000  -0.4696
  -3.000  -0.0102   0.02733   0.01996  -0.0930  0.9831  0.0505  -2.2556   0.0000   0.0000   0.0000  -8.9716
  -2.500   0.0859   0.02228   0.01353  -0.1008  0.9774  0.0572  -2.0686   0.0000   0.0000   0.0000   1.4314
  -2.000   0.1693   0.02031   0.01129  -0.1063  0.9657  0.0879  -1.7372   0.0000   0.0000   0.0000   0.8811
  -1.500   0.2504   0.01893   0.01000  -0.1113  0.9526  0.1407  -1.3377   0.0000   0.0000   0.0000   0.6962
  -1.000   0.3322   0.01765   0.00918  -0.1165  0.9398  0.2704  -0.9861   0.0000   0.0000   0.0000   0.6015
  -0.500   0.3943   0.01543   0.00872  -0.1166  0.9228  1.0000  -0.6756   0.0000   0.0000   0.0000   0.5459
   0.000   0.4720   0.01531   0.00812  -0.1203  0.9054  1.0000  -0.5904   0.0000   0.0000   0.0000   0.5043
   0.500   0.5476   0.01506   0.00760  -0.1232  0.8873  1.0000  -0.6436   0.0000   0.0000   0.0000   0.4740
   1.000   0.6175   0.01481   0.00718  -0.1248  0.8658  1.0000  -0.6980   0.0000   0.0000   0.0000   0.4507
   1.500   0.6813   0.01465   0.00692  -0.1252  0.8392  1.0000  -0.7537   0.0000   0.0000   0.0000   0.4319
   2.000   0.7475   0.01445   0.00667  -0.1259  0.8127  1.0000  -0.8174   0.0000   0.0000   0.0000   0.4161
   2.500   0.8085   0.01445   0.00663  -0.1256  0.7810  1.0000  -0.8883   0.0000   0.0000   0.0000   0.4026
   3.000   0.8675   0.01460   0.00678  -0.1250  0.7472  1.0000  -0.9981   0.0000   0.0000   0.0000   0.3909
   3.500   0.9233   0.01494   0.00712  -0.1238  0.7109  1.0000  -1.2000   0.0000   0.0000   0.0000   0.3805
   4.000   0.9783   0.01539   0.00762  -0.1226  0.6746  1.0000  -1.4861   0.0000   0.0000   0.0000   0.3712
   4.500   1.0311   0.01594   0.00821  -0.1209  0.6361  1.0000  -1.8267   0.0000   0.0000   0.0000   0.3626
   5.000   1.0812   0.01653   0.00892  -0.1186  0.5912  1.0000  -2.1947   0.0000   0.0000   0.0000   0.3545
   5.500   1.1270   0.01715   0.00955  -0.1154  0.5342  1.0000  -2.5940   0.0000   0.0000   0.0000   0.3466
   6.000   1.1675   0.01795   0.01032  -0.1113  0.4602  1.0000  -3.0297   0.0000   0.0000   0.0000   0.3389
   6.500   1.1959   0.01944   0.01131  -0.1057  0.3175  1.0000  -3.4189   0.0000   0.0000   0.0000   0.3313
   7.500   1.2201   0.02773   0.01803  -0.0920  0.0662  1.0000  -3.8727   0.0000   0.0000   0.0000   0.3172
   8.000   1.2368   0.03128   0.02156  -0.0861  0.0513  1.0000  -4.1765   0.0000   0.0000   0.0000   0.3108
   8.500   1.2625   0.03486   0.02536  -0.0811  0.0439  1.0000  -4.5221   0.0000   0.0000   0.0000   0.3047
   9.000   1.3081   0.04009   0.03090  -0.0789  0.0395  1.0000  -4.8909   0.0000   0.0000   0.0000   0.3001
   9.500   1.3377   0.04479   0.03603  -0.0753  0.0339  1.0000  -5.2540   0.0000   0.0000   0.0000   0.2955
  10.000   1.3577   0.05195   0.04382  -0.0712  0.0318  1.0000  -5.4541   0.0000   0.0000   0.0000   0.2910
  10.500   1.3497   0.05835   0.05102  -0.0641  0.0313  1.0000  -5.4901   0.0000   0.0000   0.0000   0.2855
  11.000   1.3268   0.06546   0.05889  -0.0578  0.0311  1.0000  -5.4578   0.0000   0.0000   0.0000   0.2809
  11.500   1.2946   0.07373   0.06774  -0.0542  0.0311  1.0000  -5.3790   0.0000   0.0000   0.0000   0.2785
  12.000   1.2573   0.08364   0.07815  -0.0541  0.0312  1.0000  -5.2595   0.0000   0.0000   0.0000   0.2790
  12.500   1.2178   0.09555   0.09046  -0.0580  0.0315  1.0000  -5.0978   0.0000   0.0000   0.0000   0.2828
  13.000   1.1791   0.10957   0.10472  -0.0654  0.0318  1.0000  -4.8882   0.0000   0.0000   0.0000   0.2901
  13.500   1.1457   0.12522   0.12058  -0.0750  0.0323  1.0000  -4.6333   0.0000   0.0000   0.0000   0.2995
  14.000   1.0830   0.16089   0.15642  -0.1012  0.0370  1.0000  -3.3775   0.0000   0.0000   0.0000   0.3280
  14.500   1.0788   0.17535   0.17082  -0.1091  0.0390  1.0000  -3.0909   0.0000   0.0000   0.0000   0.3353
  15.000   1.0859   0.18558   0.18103  -0.1135  0.0411  1.0000  -3.0119   0.0000   0.0000   0.0000   0.3380
  15.500   0.8364   0.17977   0.17549  -0.0874  0.0465  1.0000  -2.1003   0.0000   0.0000   0.0000   0.3398


