xflr5 v6.61

 Calculated polar for: BLD_75

 1 1 Reynolds number fixed          Mach number fixed         

 xtrf =   1.000 (top)        1.000 (bottom)
 Mach =   0.200     Re =     0.125 e 6     Ncrit =   9.000

  alpha     CL        CD       CDp       Cm    Top Xtr Bot Xtr   Cpmin    Chinge    XCp    
 ------- -------- --------- --------- -------- ------- ------- -------- --------- ---------
 -22.000  -0.7250   0.27217   0.26694   0.0431  1.0000  0.0169  -1.6083   0.0000   0.0000   0.0000   0.2963
 -21.500  -0.7074   0.26460   0.25936   0.0399  1.0000  0.0174  -1.4989   0.0000   0.0000   0.0000   0.2937
 -21.000  -0.6898   0.25854   0.25329   0.0360  1.0000  0.0181  -1.4279   0.0000   0.0000   0.0000   0.2900
 -20.500  -0.6719   0.25258   0.24733   0.0320  1.0000  0.0189  -1.3907   0.0000   0.0000   0.0000   0.2859
 -20.000  -0.6540   0.24659   0.24134   0.0280  1.0000  0.0198  -1.3894   0.0000   0.0000   0.0000   0.2816
 -19.500  -0.6360   0.24056   0.23531   0.0240  1.0000  0.0208  -1.3998   0.0000   0.0000   0.0000   0.2769
 -19.000  -0.6178   0.23465   0.22938   0.0199  1.0000  0.0218  -1.4354   0.0000   0.0000   0.0000   0.2717
 -18.500  -0.6006   0.23001   0.22475   0.0150  1.0000  0.0223  -1.5257   0.0000   0.0000   0.0000   0.2649
 -18.000  -0.5841   0.22377   0.21854   0.0111  1.0000  0.0227  -1.5756   0.0000   0.0000   0.0000   0.2592
 -17.500  -0.5655   0.21576   0.21054   0.0091  1.0000  0.0240  -1.4702   0.0000   0.0000   0.0000   0.2566
 -17.000  -0.5482   0.20960   0.20438   0.0058  1.0000  0.0253  -1.4593   0.0000   0.0000   0.0000   0.2515
 -16.500  -0.5310   0.20352   0.19831   0.0024  1.0000  0.0268  -1.4689   0.0000   0.0000   0.0000   0.2457
 -16.000  -0.5152   0.19878   0.19360  -0.0019  1.0000  0.0280  -1.5294   0.0000   0.0000   0.0000   0.2377
 -15.500  -0.5059   0.19672   0.19155  -0.0070  1.0000  0.0284  -1.6313   0.0000   0.0000   0.0000   0.2282
 -15.000  -0.4871   0.18698   0.18183  -0.0089  1.0000  0.0290  -1.5797   0.0000   0.0000   0.0000   0.2237
 -14.500  -0.4678   0.17834   0.17320  -0.0099  1.0000  0.0303  -1.4435   0.0000   0.0000   0.0000   0.2211
 -14.000  -0.4524   0.17200   0.16687  -0.0121  1.0000  0.0318  -1.3824   0.0000   0.0000   0.0000   0.2157
 -13.500  -0.4379   0.16580   0.16070  -0.0145  1.0000  0.0336  -1.3437   0.0000   0.0000   0.0000   0.2095
 -13.000  -0.4244   0.15971   0.15465  -0.0171  1.0000  0.0356  -1.3315   0.0000   0.0000   0.0000   0.2026
 -12.500  -0.4151   0.15508   0.15006  -0.0208  1.0000  0.0371  -1.4377   0.0000   0.0000   0.0000   0.1929
 -12.000  -0.4157   0.15250   0.14756  -0.0254  1.0000  0.0375  -1.6016   0.0000   0.0000   0.0000   0.1824
 -11.500  -0.3885   0.14085   0.13588  -0.0234  1.0000  0.0401  -1.4199   0.0000   0.0000   0.0000   0.1833
 -11.000  -0.3771   0.13482   0.12989  -0.0249  1.0000  0.0428  -1.4281   0.0000   0.0000   0.0000   0.1775
 -10.500  -0.3705   0.12986   0.12500  -0.0277  1.0000  0.0454  -1.5142   0.0000   0.0000   0.0000   0.1691
 -10.000  -0.3770   0.12744   0.12269  -0.0322  1.0000  0.0461  -1.6983   0.0000   0.0000   0.0000   0.1592
  -9.500  -0.3538   0.11715   0.11244  -0.0296  1.0000  0.0481  -1.5503   0.0000   0.0000   0.0000   0.1606
  -9.250  -0.3484   0.11418   0.10949  -0.0295  1.0000  0.0494  -1.5220   0.0000   0.0000   0.0000   0.1599
  -9.000  -0.3447   0.11144   0.10679  -0.0296  1.0000  0.0509  -1.5148   0.0000   0.0000   0.0000   0.1588
  -8.750  -0.3423   0.10882   0.10422  -0.0299  1.0000  0.0525  -1.5217   0.0000   0.0000   0.0000   0.1575
  -8.500  -0.3421   0.10651   0.10195  -0.0304  1.0000  0.0541  -1.5500   0.0000   0.0000   0.0000   0.1562
  -8.250  -0.3478   0.10507   0.10060  -0.0314  1.0000  0.0553  -1.6238   0.0000   0.0000   0.0000   0.1552
  -8.000  -0.3587   0.10417   0.09980  -0.0318  1.0000  0.0557  -1.7118   0.0000   0.0000   0.0000   0.1572
  -7.750  -0.3721   0.10331   0.09905  -0.0310  1.0000  0.0558  -1.7892   0.0000   0.0000   0.0000   0.1628
  -7.500  -0.3805   0.10177   0.09762  -0.0323  1.0000  0.0560  -1.8716   0.0000   0.0000   0.0000   0.1618
  -7.250  -0.3553   0.09487   0.09067  -0.0271  1.0000  0.0580  -1.6302   0.0000   0.0000   0.0000   0.1701
  -7.000  -0.3585   0.09282   0.08868  -0.0250  1.0000  0.0593  -1.6070   0.0000   0.0000   0.0000   0.1769
  -6.750  -0.3634   0.09089   0.08682  -0.0234  1.0000  0.0606  -1.6041   0.0000   0.0000   0.0000   0.1825
  -6.500  -0.3672   0.08877   0.08477  -0.0228  1.0000  0.0623  -1.6137   0.0000   0.0000   0.0000   0.1850
  -6.250  -0.3712   0.08666   0.08274  -0.0239  1.0000  0.0643  -1.6567   0.0000   0.0000   0.0000   0.1828
  -6.000  -0.3700   0.08433   0.08045  -0.0329  1.0000  0.0657  -1.8245   0.0000   0.0000   0.0000   0.1587
  -5.500  -0.3674   0.07837   0.07460  -0.0256  1.0000  0.0691  -1.6550   0.0000   0.0000   0.0000   0.1781
  -5.250  -0.3611   0.07567   0.07192  -0.0271  1.0000  0.0727  -1.6394   0.0000   0.0000   0.0000   0.1728
  -4.750  -0.3386   0.06858   0.06478  -0.0341  1.0000  0.0783  -1.6563   0.0000   0.0000   0.0000   0.1472
  -4.500  -0.3268   0.06573   0.06193  -0.0351  1.0000  0.0818  -1.6339   0.0000   0.0000   0.0000   0.1404
  -4.250  -0.2951   0.06060   0.05665  -0.0453  1.0000  0.0877  -1.7233   0.0000   0.0000   0.0000   0.0945
  -4.000  -0.2850   0.05817   0.05425  -0.0439  1.0000  0.0906  -1.6574   0.0000   0.0000   0.0000   0.0940
  -3.750  -0.2441   0.05328   0.04917  -0.0529  0.9984  0.0992  -1.6779   0.0000   0.0000   0.0000   0.0309
  -3.500  -0.1929   0.04854   0.04423  -0.0620  0.9937  0.1101  -1.6371   0.0000   0.0000   0.0000  -0.0741
  -3.000  -0.0546   0.03293   0.02679  -0.0853  0.9892  0.0758  -2.0048   0.0000   0.0000   0.0000  -1.3244
  -2.500   0.0494   0.02397   0.01647  -0.0954  0.9859  0.0623  -1.9855   0.0000   0.0000   0.0000   2.1947
  -2.250   0.0978   0.02181   0.01361  -0.0989  0.9819  0.0664  -1.9127   0.0000   0.0000   0.0000   1.2680
  -2.000   0.1454   0.02066   0.01239  -0.1029  0.9781  0.0824  -1.7458   0.0000   0.0000   0.0000   0.9615
  -1.750   0.1884   0.01977   0.01142  -0.1059  0.9716  0.1052  -1.5825   0.0000   0.0000   0.0000   0.8145
  -1.500   0.2329   0.01901   0.01071  -0.1092  0.9658  0.1323  -1.3803   0.0000   0.0000   0.0000   0.7204
  -1.250   0.2787   0.01830   0.01011  -0.1127  0.9601  0.1746  -1.1984   0.0000   0.0000   0.0000   0.6556
  -1.000   0.3202   0.01761   0.00976  -0.1155  0.9524  0.2501  -1.0261   0.0000   0.0000   0.0000   0.6116
  -0.750   0.3638   0.01661   0.00951  -0.1190  0.9462  0.4198  -0.8407   0.0000   0.0000   0.0000   0.5773
  -0.500   0.3957   0.01514   0.00920  -0.1184  0.9394  1.0000  -0.6843   0.0000   0.0000   0.0000   0.5494
  -0.250   0.4356   0.01510   0.00890  -0.1205  0.9297  1.0000  -0.5634   0.0000   0.0000   0.0000   0.5265
   0.000   0.4751   0.01502   0.00864  -0.1225  0.9199  1.0000  -0.5894   0.0000   0.0000   0.0000   0.5073
   0.250   0.5146   0.01489   0.00838  -0.1244  0.9102  1.0000  -0.6164   0.0000   0.0000   0.0000   0.4909
   0.500   0.5539   0.01471   0.00810  -0.1261  0.9005  1.0000  -0.6444   0.0000   0.0000   0.0000   0.4767
   0.750   0.5916   0.01450   0.00781  -0.1274  0.8904  1.0000  -0.6728   0.0000   0.0000   0.0000   0.4642
   1.000   0.6284   0.01427   0.00751  -0.1285  0.8799  1.0000  -0.7020   0.0000   0.0000   0.0000   0.4530
   1.250   0.6644   0.01403   0.00723  -0.1293  0.8688  1.0000  -0.7320   0.0000   0.0000   0.0000   0.4430
   1.500   0.6996   0.01379   0.00695  -0.1299  0.8571  1.0000  -0.7633   0.0000   0.0000   0.0000   0.4339
   1.750   0.7342   0.01356   0.00669  -0.1304  0.8448  1.0000  -0.7958   0.0000   0.0000   0.0000   0.4255
   2.000   0.7641   0.01349   0.00661  -0.1300  0.8288  1.0000  -0.8268   0.0000   0.0000   0.0000   0.4179
   2.250   0.7962   0.01336   0.00646  -0.1300  0.8140  1.0000  -0.8629   0.0000   0.0000   0.0000   0.4108
   2.500   0.8256   0.01336   0.00643  -0.1296  0.7971  1.0000  -0.9007   0.0000   0.0000   0.0000   0.4043
   2.750   0.8561   0.01334   0.00640  -0.1293  0.7808  1.0000  -0.9494   0.0000   0.0000   0.0000   0.3981
   3.000   0.8838   0.01345   0.00650  -0.1287  0.7622  1.0000  -1.0214   0.0000   0.0000   0.0000   0.3924
   3.250   0.9120   0.01358   0.00660  -0.1281  0.7442  1.0000  -1.1044   0.0000   0.0000   0.0000   0.3870
   3.500   0.9404   0.01372   0.00671  -0.1275  0.7266  1.0000  -1.2449   0.0000   0.0000   0.0000   0.3819
   3.750   0.9670   0.01395   0.00697  -0.1267  0.7074  1.0000  -1.3845   0.0000   0.0000   0.0000   0.3771
   4.000   0.9936   0.01418   0.00721  -0.1258  0.6884  1.0000  -1.5292   0.0000   0.0000   0.0000   0.3725
   4.250   1.0202   0.01443   0.00745  -0.1250  0.6692  1.0000  -1.7028   0.0000   0.0000   0.0000   0.3681
   4.500   1.0461   0.01468   0.00769  -0.1240  0.6486  1.0000  -1.8843   0.0000   0.0000   0.0000   0.3638
   4.750   1.0711   0.01494   0.00796  -0.1227  0.6261  1.0000  -2.0683   0.0000   0.0000   0.0000   0.3597
   5.000   1.0952   0.01519   0.00828  -0.1213  0.6015  1.0000  -2.2544   0.0000   0.0000   0.0000   0.3556
   5.250   1.1185   0.01544   0.00849  -0.1197  0.5736  1.0000  -2.4507   0.0000   0.0000   0.0000   0.3515
   5.500   1.1406   0.01572   0.00876  -0.1179  0.5431  1.0000  -2.6728   0.0000   0.0000   0.0000   0.3476
   5.750   1.1615   0.01604   0.00905  -0.1159  0.5089  1.0000  -2.8953   0.0000   0.0000   0.0000   0.3437
   6.000   1.1797   0.01640   0.00935  -0.1135  0.4629  1.0000  -3.1099   0.0000   0.0000   0.0000   0.3398
   6.250   1.1959   0.01692   0.00974  -0.1108  0.4042  1.0000  -3.3158   0.0000   0.0000   0.0000   0.3359
   6.500   1.2088   0.01781   0.01031  -0.1078  0.3190  1.0000  -3.5003   0.0000   0.0000   0.0000   0.3321
   6.750   1.2083   0.02022   0.01170  -0.1034  0.1669  1.0000  -3.6012   0.0000   0.0000   0.0000   0.3282
   7.000   1.2078   0.02308   0.01388  -0.0990  0.0936  1.0000  -3.6513   0.0000   0.0000   0.0000   0.3243
   7.250   1.2149   0.02509   0.01587  -0.0954  0.0742  1.0000  -3.7317   0.0000   0.0000   0.0000   0.3206
   7.500   1.2248   0.02680   0.01754  -0.0924  0.0632  1.0000  -3.8498   0.0000   0.0000   0.0000   0.3172
   7.750   1.2363   0.02861   0.01939  -0.0896  0.0570  1.0000  -4.0083   0.0000   0.0000   0.0000   0.3139
   8.000   1.2511   0.03056   0.02129  -0.0874  0.0526  1.0000  -4.1895   0.0000   0.0000   0.0000   0.3110
   8.250   1.2739   0.03295   0.02375  -0.0861  0.0495  1.0000  -4.3715   0.0000   0.0000   0.0000   0.3084
   8.500   1.2995   0.03528   0.02627  -0.0851  0.0465  1.0000  -4.5607   0.0000   0.0000   0.0000   0.3060
   8.750   1.3228   0.03814   0.02910  -0.0846  0.0423  1.0000  -4.7918   0.0000   0.0000   0.0000   0.3041
   9.000   1.3415   0.04083   0.03220  -0.0828  0.0405  1.0000  -4.9253   0.0000   0.0000   0.0000   0.3015
   9.250   1.3579   0.04398   0.03580  -0.0807  0.0397  1.0000  -5.0212   0.0000   0.0000   0.0000   0.2990
   9.500   1.3691   0.04746   0.03973  -0.0782  0.0392  1.0000  -5.0815   0.0000   0.0000   0.0000   0.2963
   9.750   1.3745   0.05116   0.04389  -0.0752  0.0392  1.0000  -5.1105   0.0000   0.0000   0.0000   0.2936
  10.000   1.3743   0.05500   0.04814  -0.0718  0.0394  1.0000  -5.1155   0.0000   0.0000   0.0000   0.2909
  10.250   1.3692   0.05889   0.05241  -0.0683  0.0397  1.0000  -5.1046   0.0000   0.0000   0.0000   0.2882
  10.500   1.3588   0.06260   0.05643  -0.0644  0.0401  1.0000  -5.0832   0.0000   0.0000   0.0000   0.2855
  10.750   1.3458   0.06644   0.06053  -0.0609  0.0405  1.0000  -5.0561   0.0000   0.0000   0.0000   0.2830
  11.000   1.3316   0.07058   0.06490  -0.0580  0.0410  1.0000  -5.0253   0.0000   0.0000   0.0000   0.2810
  11.250   1.3188   0.07540   0.06998  -0.0560  0.0415  1.0000  -4.9943   0.0000   0.0000   0.0000   0.2796
  11.500   1.3117   0.07986   0.07463  -0.0545  0.0423  1.0000  -4.9821   0.0000   0.0000   0.0000   0.2784
  11.750   1.2788   0.08337   0.07845  -0.0533  0.0431  1.0000  -4.8516   0.0000   0.0000   0.0000   0.2782
  12.000   1.2393   0.08987   0.08532  -0.0552  0.0440  1.0000  -4.6466   0.0000   0.0000   0.0000   0.2807
  12.250   1.2053   0.09779   0.09351  -0.0593  0.0448  1.0000  -4.4550   0.0000   0.0000   0.0000   0.2850
  12.500   1.1735   0.10698   0.10289  -0.0653  0.0455  1.0000  -4.2549   0.0000   0.0000   0.0000   0.2912
  12.750   1.1410   0.11819   0.11425  -0.0736  0.0465  1.0000  -4.0014   0.0000   0.0000   0.0000   0.2998
  13.000   1.1135   0.13074   0.12685  -0.0825  0.0482  1.0000  -3.7079   0.0000   0.0000   0.0000   0.3094
  13.250   1.1041   0.13895   0.13506  -0.0867  0.0501  1.0000  -3.5770   0.0000   0.0000   0.0000   0.3136


