xflr5 v6.61

 Calculated polar for: BLD_50

 1 1 Reynolds number fixed          Mach number fixed         

 xtrf =   1.000 (top)        1.000 (bottom)
 Mach =   0.200     Re =     0.090 e 6     Ncrit =   7.000

  alpha     CL        CD       CDp       Cm    Top Xtr Bot Xtr   Cpmin    Chinge    XCp    
 ------- -------- --------- --------- -------- ------- ------- -------- --------- ---------
 -25.500  -0.8082   0.30740   0.30117   0.0616  1.0000  0.0170  -1.6632   0.0000   0.0000   0.0000   0.3086
 -25.000  -0.7923   0.30144   0.29519   0.0575  1.0000  0.0176  -1.6158   0.0000   0.0000   0.0000   0.3056
 -24.500  -0.7760   0.29587   0.28959   0.0532  1.0000  0.0182  -1.5836   0.0000   0.0000   0.0000   0.3023
 -24.000  -0.7593   0.29033   0.28403   0.0489  1.0000  0.0190  -1.5558   0.0000   0.0000   0.0000   0.2987
 -23.500  -0.7425   0.28475   0.27844   0.0446  1.0000  0.0197  -1.5292   0.0000   0.0000   0.0000   0.2950
 -23.000  -0.7255   0.27913   0.27281   0.0403  1.0000  0.0206  -1.5037   0.0000   0.0000   0.0000   0.2911
 -22.500  -0.7083   0.27356   0.26724   0.0361  1.0000  0.0214  -1.4829   0.0000   0.0000   0.0000   0.2870
 -22.000  -0.6909   0.26831   0.26199   0.0317  1.0000  0.0219  -1.4737   0.0000   0.0000   0.0000   0.2825
 -21.500  -0.6741   0.26380   0.25745   0.0271  1.0000  0.0222  -1.4883   0.0000   0.0000   0.0000   0.2772
 -21.000  -0.6591   0.26079   0.25449   0.0221  1.0000  0.0224  -1.5733   0.0000   0.0000   0.0000   0.2711
 -20.500  -0.6401   0.25047   0.24415   0.0203  1.0000  0.0234  -1.4518   0.0000   0.0000   0.0000   0.2697
 -20.000  -0.6230   0.24458   0.23826   0.0169  1.0000  0.0247  -1.4318   0.0000   0.0000   0.0000   0.2656
 -19.500  -0.6059   0.23879   0.23247   0.0134  1.0000  0.0258  -1.4352   0.0000   0.0000   0.0000   0.2609
 -19.000  -0.5888   0.23321   0.22690   0.0097  1.0000  0.0271  -1.4544   0.0000   0.0000   0.0000   0.2557
 -18.500  -0.5727   0.22906   0.22274   0.0054  1.0000  0.0280  -1.5124   0.0000   0.0000   0.0000   0.2491
 -18.000  -0.5605   0.22706   0.22078   0.0008  1.0000  0.0284  -1.5926   0.0000   0.0000   0.0000   0.2414
 -17.500  -0.5435   0.21909   0.21285  -0.0019  1.0000  0.0287  -1.5765   0.0000   0.0000   0.0000   0.2368
 -17.000  -0.5238   0.20953   0.20329  -0.0031  1.0000  0.0298  -1.4569   0.0000   0.0000   0.0000   0.2346
 -16.500  -0.5076   0.20334   0.19711  -0.0055  1.0000  0.0311  -1.4038   0.0000   0.0000   0.0000   0.2300
 -16.000  -0.4919   0.19742   0.19122  -0.0080  1.0000  0.0326  -1.3676   0.0000   0.0000   0.0000   0.2248
 -15.500  -0.4768   0.19158   0.18540  -0.0105  1.0000  0.0343  -1.3410   0.0000   0.0000   0.0000   0.2193
 -15.000  -0.4628   0.18616   0.17998  -0.0133  1.0000  0.0363  -1.3370   0.0000   0.0000   0.0000   0.2128
 -14.500  -0.4540   0.18299   0.17687  -0.0171  1.0000  0.0373  -1.4195   0.0000   0.0000   0.0000   0.2042
 -14.000  -0.4403   0.17582   0.16975  -0.0190  1.0000  0.0379  -1.4370   0.0000   0.0000   0.0000   0.1991
 -13.500  -0.4230   0.16793   0.16188  -0.0193  1.0000  0.0397  -1.3620   0.0000   0.0000   0.0000   0.1966
 -13.000  -0.4102   0.16200   0.15599  -0.0208  1.0000  0.0418  -1.3602   0.0000   0.0000   0.0000   0.1917
 -12.500  -0.3992   0.15641   0.15045  -0.0226  1.0000  0.0442  -1.3892   0.0000   0.0000   0.0000   0.1860
 -12.000  -0.3942   0.15266   0.14677  -0.0256  1.0000  0.0458  -1.4904   0.0000   0.0000   0.0000   0.1781
 -11.500  -0.3969   0.15028   0.14450  -0.0289  1.0000  0.0462  -1.6218   0.0000   0.0000   0.0000   0.1708
 -11.000  -0.3700   0.13873   0.13297  -0.0267  1.0000  0.0483  -1.4520   0.0000   0.0000   0.0000   0.1712
 -10.500  -0.3597   0.13292   0.12716  -0.0272  1.0000  0.0509  -1.4282   0.0000   0.0000   0.0000   0.1679
 -10.000  -0.3529   0.12764   0.12196  -0.0283  1.0000  0.0538  -1.4459   0.0000   0.0000   0.0000   0.1637
  -9.500  -0.3561   0.12436   0.11881  -0.0307  1.0000  0.0556  -1.5531   0.0000   0.0000   0.0000   0.1583
  -8.500  -0.3366   0.11139   0.10601  -0.0287  1.0000  0.0605  -1.4418   0.0000   0.0000   0.0000   0.1596
  -8.000  -0.3409   0.10754   0.10230  -0.0287  1.0000  0.0648  -1.4858   0.0000   0.0000   0.0000   0.1612
  -7.500  -0.3658   0.10604   0.10103  -0.0277  1.0000  0.0657  -1.6238   0.0000   0.0000   0.0000   0.1706
  -7.000  -0.3490   0.09826   0.09332  -0.0239  1.0000  0.0694  -1.4673   0.0000   0.0000   0.0000   0.1779
  -6.500  -0.3591   0.09454   0.08976  -0.0214  1.0000  0.0730  -1.4898   0.0000   0.0000   0.0000   0.1871
  -6.000  -0.3637   0.09088   0.08627  -0.0323  1.0000  0.0758  -1.7087   0.0000   0.0000   0.0000   0.1586
  -5.500  -0.3582   0.08419   0.07969  -0.0235  1.0000  0.0786  -1.5817   0.0000   0.0000   0.0000   0.1819
  -5.000  -0.3401   0.07830   0.07384  -0.0309  1.0000  0.0856  -1.6461   0.0000   0.0000   0.0000   0.1567
  -4.500  -0.3198   0.07151   0.06705  -0.0336  1.0000  0.0892  -1.6388   0.0000   0.0000   0.0000   0.1426
  -3.500  -0.1666   0.04808   0.04279  -0.0700  0.9983  0.0653  -2.0184   0.0000   0.0000   0.0000  -0.1740
  -3.000  -0.0444   0.03449   0.02800  -0.0907  0.9955  0.0542  -2.1934   0.0000   0.0000   0.0000  -1.8102
  -2.500   0.0674   0.02647   0.01831  -0.1036  0.9917  0.0540  -2.1307   0.0000   0.0000   0.0000   1.7998
  -2.000   0.1641   0.02291   0.01391  -0.1116  0.9853  0.0692  -1.9227   0.0000   0.0000   0.0000   0.9339
  -1.500   0.2518   0.02168   0.01261  -0.1183  0.9735  0.1238  -1.5336   0.0000   0.0000   0.0000   0.7216
  -1.000   0.3391   0.02049   0.01163  -0.1246  0.9614  0.2137  -1.1386   0.0000   0.0000   0.0000   0.6183
  -0.500   0.4248   0.01904   0.01131  -0.1309  0.9491  0.5271  -0.7702   0.0000   0.0000   0.0000   0.5581
   0.000   0.4860   0.01800   0.01074  -0.1304  0.9288  1.0000  -0.5847   0.0000   0.0000   0.0000   0.5178
   0.500   0.5630   0.01792   0.01031  -0.1340  0.9091  1.0000  -0.6428   0.0000   0.0000   0.0000   0.4869
   1.000   0.6377   0.01765   0.00984  -0.1367  0.8882  1.0000  -0.7062   0.0000   0.0000   0.0000   0.4628
   1.500   0.7130   0.01721   0.00929  -0.1391  0.8667  1.0000  -0.7781   0.0000   0.0000   0.0000   0.4432
   2.000   0.7816   0.01684   0.00891  -0.1402  0.8401  1.0000  -0.8563   0.0000   0.0000   0.0000   0.4269
   2.500   0.8542   0.01634   0.00840  -0.1416  0.8123  1.0000  -0.9586   0.0000   0.0000   0.0000   0.4129
   3.000   0.9194   0.01614   0.00825  -0.1417  0.7758  1.0000  -1.0747   0.0000   0.0000   0.0000   0.4008
   3.500   0.9832   0.01612   0.00822  -0.1415  0.7353  1.0000  -1.2394   0.0000   0.0000   0.0000   0.3901
   4.000   1.0411   0.01640   0.00852  -0.1403  0.6891  1.0000  -1.4519   0.0000   0.0000   0.0000   0.3804
   4.500   1.0956   0.01688   0.00895  -0.1386  0.6400  1.0000  -1.7552   0.0000   0.0000   0.0000   0.3715
   5.000   1.1452   0.01757   0.00967  -0.1360  0.5864  1.0000  -2.0904   0.0000   0.0000   0.0000   0.3632
   5.500   1.1913   0.01842   0.01050  -0.1329  0.5292  1.0000  -2.4582   0.0000   0.0000   0.0000   0.3554
   6.000   1.2329   0.01944   0.01148  -0.1291  0.4645  1.0000  -2.8254   0.0000   0.0000   0.0000   0.3480
   6.500   1.2660   0.02071   0.01259  -0.1240  0.3770  1.0000  -3.1726   0.0000   0.0000   0.0000   0.3406
   7.000   1.2904   0.02276   0.01424  -0.1181  0.2611  1.0000  -3.5089   0.0000   0.0000   0.0000   0.3335
   7.500   1.3103   0.02579   0.01670  -0.1124  0.1537  1.0000  -3.8459   0.0000   0.0000   0.0000   0.3271
   8.000   1.3229   0.02969   0.02017  -0.1057  0.0891  1.0000  -4.0991   0.0000   0.0000   0.0000   0.3206
   8.500   1.3318   0.03363   0.02414  -0.0981  0.0655  1.0000  -4.2882   0.0000   0.0000   0.0000   0.3137
   9.000   1.3474   0.03753   0.02819  -0.0920  0.0540  1.0000  -4.5182   0.0000   0.0000   0.0000   0.3077
   9.500   1.3703   0.04175   0.03263  -0.0873  0.0462  1.0000  -4.8128   0.0000   0.0000   0.0000   0.3024
  10.000   1.4021   0.04684   0.03800  -0.0839  0.0419  1.0000  -5.1812   0.0000   0.0000   0.0000   0.2978
  10.500   1.4266   0.05372   0.04559  -0.0801  0.0397  1.0000  -5.4351   0.0000   0.0000   0.0000   0.2934
  11.000   1.4196   0.06059   0.05328  -0.0738  0.0389  1.0000  -5.5098   0.0000   0.0000   0.0000   0.2886
  11.500   1.3944   0.06812   0.06153  -0.0682  0.0381  1.0000  -5.5000   0.0000   0.0000   0.0000   0.2849
  12.000   1.3595   0.07705   0.07108  -0.0655  0.0375  1.0000  -5.4301   0.0000   0.0000   0.0000   0.2834
  12.500   1.3184   0.08808   0.08266  -0.0668  0.0375  1.0000  -5.2948   0.0000   0.0000   0.0000   0.2851
  13.000   1.2738   0.10178   0.09680  -0.0726  0.0380  1.0000  -5.0842   0.0000   0.0000   0.0000   0.2907
  13.500   1.2298   0.11826   0.11360  -0.0826  0.0390  1.0000  -4.7982   0.0000   0.0000   0.0000   0.3002
  14.000   1.1926   0.13674   0.13226  -0.0950  0.0400  1.0000  -4.4494   0.0000   0.0000   0.0000   0.3122
  15.000   0.8993   0.16686   0.16251  -0.0925  0.0485  1.0000  -2.5128   0.0000   0.0000   0.0000   0.3370
  15.500   0.8902   0.17580   0.17146  -0.0955  0.0495  1.0000  -2.3862   0.0000   0.0000   0.0000   0.3411
  16.000   0.8674   0.18936   0.18500  -0.1020  0.0568  1.0000  -1.9635   0.0000   0.0000   0.0000   0.3515


