xflr5 v6.61

 Calculated polar for: BLD_25

 1 1 Reynolds number fixed          Mach number fixed         

 xtrf =   1.000 (top)        1.000 (bottom)
 Mach =   0.200     Re =     0.060 e 6     Ncrit =   7.000

  alpha     CL        CD       CDp       Cm    Top Xtr Bot Xtr   Cpmin    Chinge    XCp    
 ------- -------- --------- --------- -------- ------- ------- -------- --------- ---------
 -28.000  -0.8585   0.33216   0.32453   0.0740  1.0000  0.0228  -1.6391   0.0000   0.0000   0.0000   0.3146
 -27.500  -0.8441   0.32645   0.31880   0.0697  1.0000  0.0235  -1.5883   0.0000   0.0000   0.0000   0.3119
 -27.000  -0.8293   0.32123   0.31355   0.0654  1.0000  0.0244  -1.5760   0.0000   0.0000   0.0000   0.3089
 -26.500  -0.8141   0.31609   0.30836   0.0610  1.0000  0.0253  -1.5695   0.0000   0.0000   0.0000   0.3057
 -26.000  -0.7987   0.31099   0.30325   0.0566  1.0000  0.0262  -1.5664   0.0000   0.0000   0.0000   0.3023
 -25.500  -0.7830   0.30610   0.29834   0.0521  1.0000  0.0271  -1.5690   0.0000   0.0000   0.0000   0.2988
 -25.000  -0.7673   0.30216   0.29439   0.0474  1.0000  0.0278  -1.5857   0.0000   0.0000   0.0000   0.2947
 -24.500  -0.7527   0.30071   0.29295   0.0422  1.0000  0.0282  -1.6233   0.0000   0.0000   0.0000   0.2897
 -24.000  -0.7380   0.29648   0.28873   0.0377  1.0000  0.0286  -1.6308   0.0000   0.0000   0.0000   0.2854
 -23.500  -0.7202   0.28486   0.27707   0.0355  1.0000  0.0297  -1.5196   0.0000   0.0000   0.0000   0.2841
 -23.000  -0.7042   0.27891   0.27111   0.0321  1.0000  0.0309  -1.4670   0.0000   0.0000   0.0000   0.2809
 -22.500  -0.6881   0.27339   0.26559   0.0284  1.0000  0.0321  -1.4273   0.0000   0.0000   0.0000   0.2772
 -22.000  -0.6719   0.26794   0.26014   0.0248  1.0000  0.0334  -1.4019   0.0000   0.0000   0.0000   0.2733
 -21.500  -0.6557   0.26255   0.25475   0.0212  1.0000  0.0348  -1.4075   0.0000   0.0000   0.0000   0.2692
 -21.000  -0.6396   0.25744   0.24961   0.0175  1.0000  0.0361  -1.4222   0.0000   0.0000   0.0000   0.2647
 -20.500  -0.6240   0.25320   0.24539   0.0136  1.0000  0.0369  -1.4528   0.0000   0.0000   0.0000   0.2596
 -20.000  -0.6100   0.25022   0.24243   0.0094  1.0000  0.0373  -1.4963   0.0000   0.0000   0.0000   0.2538
 -19.500  -0.5954   0.24529   0.23756   0.0060  1.0000  0.0376  -1.5112   0.0000   0.0000   0.0000   0.2488
 -19.000  -0.5762   0.23515   0.22741   0.0046  1.0000  0.0389  -1.4147   0.0000   0.0000   0.0000   0.2469
 -18.500  -0.5600   0.22918   0.22146   0.0021  1.0000  0.0407  -1.3738   0.0000   0.0000   0.0000   0.2430
 -18.000  -0.5444   0.22369   0.21595  -0.0007  1.0000  0.0430  -1.3506   0.0000   0.0000   0.0000   0.2384
 -17.500  -0.5299   0.21912   0.21141  -0.0039  1.0000  0.0451  -1.3538   0.0000   0.0000   0.0000   0.2327
 -17.000  -0.5191   0.21687   0.20921  -0.0077  1.0000  0.0459  -1.3945   0.0000   0.0000   0.0000   0.2256
 -16.500  -0.5029   0.20921   0.20161  -0.0097  1.0000  0.0467  -1.3535   0.0000   0.0000   0.0000   0.2214
 -16.000  -0.4852   0.20124   0.19365  -0.0108  1.0000  0.0486  -1.2957   0.0000   0.0000   0.0000   0.2186
 -15.500  -0.4705   0.19540   0.18785  -0.0127  1.0000  0.0510  -1.2898   0.0000   0.0000   0.0000   0.2141
 -15.000  -0.4570   0.19004   0.18253  -0.0149  1.0000  0.0535  -1.3058   0.0000   0.0000   0.0000   0.2088
 -14.500  -0.4469   0.18616   0.17871  -0.0177  1.0000  0.0553  -1.3624   0.0000   0.0000   0.0000   0.2021
 -14.000  -0.4429   0.18425   0.17683  -0.0209  1.0000  0.0559  -1.4517   0.0000   0.0000   0.0000   0.1949
 -13.500  -0.4194   0.17293   0.16555  -0.0203  1.0000  0.0582  -1.3452   0.0000   0.0000   0.0000   0.1936
 -13.000  -0.4065   0.16703   0.15969  -0.0215  1.0000  0.0611  -1.3289   0.0000   0.0000   0.0000   0.1895
 -12.500  -0.3967   0.16198   0.15470  -0.0232  1.0000  0.0642  -1.3472   0.0000   0.0000   0.0000   0.1842
 -12.000  -0.3948   0.15925   0.15208  -0.0259  1.0000  0.0657  -1.4258   0.0000   0.0000   0.0000   0.1775
 -11.500  -0.3761   0.15029   0.14317  -0.0252  1.0000  0.0687  -1.3403   0.0000   0.0000   0.0000   0.1760
 -11.000  -0.3672   0.14510   0.13806  -0.0261  1.0000  0.0736  -1.3319   0.0000   0.0000   0.0000   0.1722
 -10.500  -0.3723   0.14336   0.13646  -0.0287  1.0000  0.0757  -1.4272   0.0000   0.0000   0.0000   0.1668
 -10.000  -0.3508   0.13384   0.12699  -0.0270  1.0000  0.0797  -1.3122   0.0000   0.0000   0.0000   0.1666
  -9.500  -0.3455   0.12903   0.12222  -0.0275  1.0000  0.0844  -1.3111   0.0000   0.0000   0.0000   0.1645
  -9.000  -0.3561   0.12728   0.12066  -0.0292  1.0000  0.0864  -1.4053   0.0000   0.0000   0.0000   0.1627
  -8.500  -0.3351   0.11837   0.11181  -0.0269  1.0000  0.0907  -1.3093   0.0000   0.0000   0.0000   0.1644
  -8.000  -0.3381   0.11458   0.10818  -0.0265  1.0000  0.0958  -1.3571   0.0000   0.0000   0.0000   0.1668
  -7.500  -0.3632   0.11380   0.10766  -0.0256  1.0000  0.0971  -1.4790   0.0000   0.0000   0.0000   0.1756
  -7.000  -0.3399   0.10503   0.09894  -0.0224  1.0000  0.1034  -1.3904   0.0000   0.0000   0.0000   0.1800
  -6.500  -0.3603   0.10314   0.09730  -0.0221  1.0000  0.1074  -1.4896   0.0000   0.0000   0.0000   0.1854
  -6.000  -0.3521   0.09663   0.09091  -0.0189  1.0000  0.1117  -1.4554   0.0000   0.0000   0.0000   0.1934
  -5.500  -0.3514   0.09281   0.08726  -0.0258  1.0000  0.1186  -1.5566   0.0000   0.0000   0.0000   0.1738
  -5.000  -0.3412   0.08632   0.08088  -0.0210  1.0000  0.1246  -1.4929   0.0000   0.0000   0.0000   0.1858
  -4.500  -0.3251   0.08050   0.07515  -0.0247  1.0000  0.1344  -1.5008   0.0000   0.0000   0.0000   0.1715
  -4.000  -0.2940   0.07410   0.06874  -0.0335  1.0000  0.1525  -1.5097   0.0000   0.0000   0.0000   0.1337
  -3.000  -0.1119   0.04918   0.04283  -0.0763  1.0000  0.0855  -1.8457   0.0000   0.0000   0.0000  -0.4384
  -2.500   0.0144   0.03688   0.02930  -0.0980  1.0000  0.0712  -1.9364   0.0000   0.0000   0.0000   7.1112
  -2.000   0.1268   0.02959   0.02018  -0.1112  1.0000  0.0757  -1.9490   0.0000   0.0000   0.0000   1.1317
  -1.500   0.1919   0.02800   0.01833  -0.1145  1.0000  0.1146  -1.7191   0.0000   0.0000   0.0000   0.8490
  -1.000   0.2603   0.02656   0.01660  -0.1175  1.0000  0.1643  -1.4839   0.0000   0.0000   0.0000   0.7024
  -0.500   0.3229   0.02612   0.01628  -0.1197  1.0000  0.2549  -1.1695   0.0000   0.0000   0.0000   0.6211
   0.000   0.4126   0.02462   0.01647  -0.1263  0.9910  0.6962  -0.8167   0.0000   0.0000   0.0000   0.5557
   0.500   0.4888   0.02512   0.01649  -0.1308  0.9638  1.0000  -0.5901   0.0000   0.0000   0.0000   0.5165
   1.000   0.5775   0.02579   0.01670  -0.1375  0.9403  1.0000  -0.6630   0.0000   0.0000   0.0000   0.4865
   1.500   0.6558   0.02611   0.01680  -0.1417  0.9119  1.0000  -0.7401   0.0000   0.0000   0.0000   0.4640
   2.000   0.7331   0.02613   0.01673  -0.1451  0.8829  1.0000  -0.8270   0.0000   0.0000   0.0000   0.4454
   2.500   0.8125   0.02569   0.01632  -0.1480  0.8543  1.0000  -0.9355   0.0000   0.0000   0.0000   0.4291
   3.000   0.8924   0.02472   0.01545  -0.1500  0.8247  1.0000  -1.0591   0.0000   0.0000   0.0000   0.4146
   3.500   0.9689   0.02377   0.01468  -0.1510  0.7895  1.0000  -1.2011   0.0000   0.0000   0.0000   0.4018
   4.000   1.0468   0.02272   0.01382  -0.1518  0.7486  1.0000  -1.3909   0.0000   0.0000   0.0000   0.3904
   4.500   1.1150   0.02225   0.01344  -0.1510  0.6950  1.0000  -1.5956   0.0000   0.0000   0.0000   0.3803
   5.000   1.1745   0.02243   0.01362  -0.1490  0.6313  1.0000  -1.8854   0.0000   0.0000   0.0000   0.3711
   5.500   1.2261   0.02316   0.01433  -0.1459  0.5619  1.0000  -2.2038   0.0000   0.0000   0.0000   0.3627
   6.000   1.2698   0.02439   0.01544  -0.1419  0.4900  1.0000  -2.5415   0.0000   0.0000   0.0000   0.3548
   6.500   1.3073   0.02600   0.01690  -0.1372  0.4173  1.0000  -2.8879   0.0000   0.0000   0.0000   0.3473
   7.000   1.3399   0.02798   0.01887  -0.1321  0.3469  1.0000  -3.2219   0.0000   0.0000   0.0000   0.3403
   7.500   1.3664   0.03036   0.02106  -0.1264  0.2804  1.0000  -3.5356   0.0000   0.0000   0.0000   0.3335
   8.000   1.3848   0.03305   0.02364  -0.1201  0.2189  1.0000  -3.8160   0.0000   0.0000   0.0000   0.3270
   8.500   1.3965   0.03613   0.02665  -0.1133  0.1666  1.0000  -4.0601   0.0000   0.0000   0.0000   0.3207
   9.000   1.4037   0.03983   0.03033  -0.1063  0.1255  1.0000  -4.2567   0.0000   0.0000   0.0000   0.3146
   9.500   1.4121   0.04436   0.03488  -0.0999  0.0961  1.0000  -4.4489   0.0000   0.0000   0.0000   0.3089
  10.000   1.4319   0.04962   0.04018  -0.0949  0.0780  1.0000  -4.6700   0.0000   0.0000   0.0000   0.3037
  10.500   1.4613   0.05589   0.04693  -0.0914  0.0679  1.0000  -4.8934   0.0000   0.0000   0.0000   0.2992
  11.000   1.4587   0.06322   0.05524  -0.0855  0.0639  1.0000  -4.9396   0.0000   0.0000   0.0000   0.2946
  11.500   1.4479   0.06997   0.06246  -0.0807  0.0598  1.0000  -5.0322   0.0000   0.0000   0.0000   0.2910
  12.000   1.4236   0.07823   0.07121  -0.0772  0.0574  1.0000  -5.0435   0.0000   0.0000   0.0000   0.2888
  12.500   1.3812   0.08899   0.08261  -0.0770  0.0570  1.0000  -4.9168   0.0000   0.0000   0.0000   0.2895
  13.000   1.3361   0.10210   0.09622  -0.0812  0.0572  1.0000  -4.7389   0.0000   0.0000   0.0000   0.2938
  13.500   1.2925   0.11762   0.11208  -0.0896  0.0579  1.0000  -4.5060   0.0000   0.0000   0.0000   0.3016
  14.000   0.9739   0.14884   0.14366  -0.0933  0.0764  1.0000  -2.7403   0.0000   0.0000   0.0000   0.3298
  14.500   0.9414   0.16224   0.15702  -0.0994  0.0769  1.0000  -2.4204   0.0000   0.0000   0.0000   0.3395
  15.000   0.9239   0.17299   0.16777  -0.1036  0.0774  1.0000  -2.2195   0.0000   0.0000   0.0000   0.3459
  16.500   1.2017   0.22427   0.21874  -0.1575  0.0781  1.0000  -2.5344   0.0000   0.0000   0.0000   0.3613


