xflr5 v6.61

 Calculated polar for: BLD_25

 1 1 Reynolds number fixed          Mach number fixed         

 xtrf =   1.000 (top)        1.000 (bottom)
 Mach =   0.200     Re =     0.100 e 6     Ncrit =   7.000

  alpha     CL        CD       CDp       Cm    Top Xtr Bot Xtr   Cpmin    Chinge    XCp    
 ------- -------- --------- --------- -------- ------- ------- -------- --------- ---------
 -20.000  -0.6053   0.24510   0.23905   0.0104  1.0000  0.0228  -1.4975   0.0000   0.0000   0.0000   0.2552
 -19.500  -0.5893   0.23891   0.23287   0.0079  1.0000  0.0235  -1.4476   0.0000   0.0000   0.0000   0.2518
 -19.000  -0.5735   0.23325   0.22722   0.0051  1.0000  0.0244  -1.4208   0.0000   0.0000   0.0000   0.2477
 -18.500  -0.5578   0.22763   0.22162   0.0023  1.0000  0.0254  -1.4021   0.0000   0.0000   0.0000   0.2432
 -18.000  -0.5423   0.22207   0.21604  -0.0006  1.0000  0.0265  -1.3904   0.0000   0.0000   0.0000   0.2385
 -17.500  -0.5272   0.21705   0.21105  -0.0037  1.0000  0.0276  -1.3992   0.0000   0.0000   0.0000   0.2329
 -17.000  -0.5147   0.21380   0.20783  -0.0074  1.0000  0.0281  -1.4437   0.0000   0.0000   0.0000   0.2259
 -16.500  -0.5058   0.21155   0.20562  -0.0111  1.0000  0.0284  -1.4942   0.0000   0.0000   0.0000   0.2188
 -16.000  -0.4855   0.20033   0.19444  -0.0116  1.0000  0.0290  -1.3941   0.0000   0.0000   0.0000   0.2168
 -15.500  -0.4694   0.19324   0.18736  -0.0126  1.0000  0.0305  -1.3225   0.0000   0.0000   0.0000   0.2142
 -15.000  -0.4553   0.18746   0.18161  -0.0143  1.0000  0.0324  -1.3070   0.0000   0.0000   0.0000   0.2098
 -14.500  -0.4420   0.18176   0.17591  -0.0162  1.0000  0.0342  -1.3175   0.0000   0.0000   0.0000   0.2049
 -14.000  -0.4296   0.17623   0.17042  -0.0182  1.0000  0.0359  -1.3502   0.0000   0.0000   0.0000   0.1994
 -13.500  -0.4200   0.17177   0.16601  -0.0208  1.0000  0.0370  -1.4266   0.0000   0.0000   0.0000   0.1925
 -13.000  -0.4149   0.16834   0.16264  -0.0236  1.0000  0.0373  -1.5230   0.0000   0.0000   0.0000   0.1856
 -12.500  -0.4019   0.16074   0.15511  -0.0244  1.0000  0.0378  -1.5163   0.0000   0.0000   0.0000   0.1819
 -12.000  -0.3852   0.15281   0.14721  -0.0238  1.0000  0.0393  -1.4128   0.0000   0.0000   0.0000   0.1808
 -11.500  -0.3744   0.14705   0.14150  -0.0244  1.0000  0.0411  -1.3871   0.0000   0.0000   0.0000   0.1775
 -11.000  -0.3652   0.14155   0.13605  -0.0253  1.0000  0.0432  -1.3860   0.0000   0.0000   0.0000   0.1737
 -10.500  -0.3600   0.13696   0.13155  -0.0269  1.0000  0.0453  -1.4359   0.0000   0.0000   0.0000   0.1686
 -10.000  -0.3639   0.13418   0.12888  -0.0292  1.0000  0.0460  -1.5470   0.0000   0.0000   0.0000   0.1636
  -9.500  -0.3520   0.12643   0.12121  -0.0285  1.0000  0.0468  -1.4962   0.0000   0.0000   0.0000   0.1631
  -9.000  -0.3390   0.11978   0.11457  -0.0269  1.0000  0.0489  -1.3877   0.0000   0.0000   0.0000   0.1649
  -8.500  -0.3342   0.11477   0.10965  -0.0263  1.0000  0.0514  -1.3606   0.0000   0.0000   0.0000   0.1660
  -8.000  -0.3371   0.11080   0.10581  -0.0261  1.0000  0.0547  -1.4069   0.0000   0.0000   0.0000   0.1677
  -7.500  -0.3583   0.10913   0.10434  -0.0253  1.0000  0.0556  -1.5535   0.0000   0.0000   0.0000   0.1752
  -7.000  -0.3450   0.10168   0.09697  -0.0218  1.0000  0.0584  -1.4610   0.0000   0.0000   0.0000   0.1829
  -6.500  -0.3541   0.09808   0.09350  -0.0181  1.0000  0.0616  -1.4694   0.0000   0.0000   0.0000   0.1955
  -6.000  -0.3631   0.09444   0.09003  -0.0199  1.0000  0.0651  -1.5767   0.0000   0.0000   0.0000   0.1923
  -5.500  -0.3582   0.08853   0.08425  -0.0236  1.0000  0.0666  -1.6579   0.0000   0.0000   0.0000   0.1813
  -5.000  -0.3490   0.08310   0.07889  -0.0207  1.0000  0.0699  -1.5845   0.0000   0.0000   0.0000   0.1880
  -4.500  -0.3087   0.07511   0.07089  -0.0383  1.0000  0.0762  -1.7458   0.0000   0.0000   0.0000   0.1233
  -3.500  -0.1061   0.04146   0.03684  -0.0775  0.9743  0.0549  -1.8700   0.0000   0.0000   0.0000  -0.4860
  -3.000   0.0112   0.02684   0.02133  -0.1004  0.9727  0.0515  -1.9726   0.0000   0.0000   0.0000   9.3050
  -2.500   0.1370   0.01507   0.00764  -0.1178  0.9727  0.0490  -2.0103   0.0000   0.0000   0.0000   1.1152
  -2.000   0.2151   0.02323   0.01456  -0.1262  0.9847  0.0562  -1.9826   0.0000   0.0000   0.0000   0.8400
  -1.500   0.3060   0.02171   0.01302  -0.1334  0.9761  0.1019  -1.6235   0.0000   0.0000   0.0000   0.6875
  -1.000   0.3923   0.02086   0.01239  -0.1397  0.9640  0.1958  -1.1752   0.0000   0.0000   0.0000   0.6068
  -0.500   0.4786   0.01996   0.01212  -0.1460  0.9520  0.3948  -0.8014   0.0000   0.0000   0.0000   0.5552
   0.000   0.5370   0.01836   0.01172  -0.1451  0.9337  1.0000  -0.6103   0.0000   0.0000   0.0000   0.5196
   0.500   0.6133   0.01822   0.01119  -0.1485  0.9144  1.0000  -0.6758   0.0000   0.0000   0.0000   0.4910
   1.000   0.6884   0.01786   0.01061  -0.1512  0.8941  1.0000  -0.7499   0.0000   0.0000   0.0000   0.4680
   1.500   0.7620   0.01725   0.00989  -0.1532  0.8729  1.0000  -0.8329   0.0000   0.0000   0.0000   0.4489
   2.000   0.8370   0.01649   0.00912  -0.1551  0.8489  1.0000  -0.9349   0.0000   0.0000   0.0000   0.4327
   2.500   0.9109   0.01582   0.00844  -0.1567  0.8181  1.0000  -1.0493   0.0000   0.0000   0.0000   0.4189
   3.000   0.9847   0.01532   0.00794  -0.1583  0.7786  1.0000  -1.1847   0.0000   0.0000   0.0000   0.4071
   3.500   1.0533   0.01520   0.00774  -0.1589  0.7264  1.0000  -1.3449   0.0000   0.0000   0.0000   0.3967
   4.000   1.1120   0.01557   0.00798  -0.1578  0.6650  1.0000  -1.5313   0.0000   0.0000   0.0000   0.3872
   4.500   1.1636   0.01627   0.00848  -0.1555  0.5994  1.0000  -1.7423   0.0000   0.0000   0.0000   0.3784
   5.000   1.2102   0.01722   0.00929  -0.1526  0.5338  1.0000  -2.0392   0.0000   0.0000   0.0000   0.3702
   5.500   1.2529   0.01835   0.01025  -0.1491  0.4678  1.0000  -2.3532   0.0000   0.0000   0.0000   0.3625
   6.000   1.2919   0.01968   0.01139  -0.1451  0.4005  1.0000  -2.7048   0.0000   0.0000   0.0000   0.3551
   6.500   1.3247   0.02126   0.01270  -0.1403  0.3237  1.0000  -3.0476   0.0000   0.0000   0.0000   0.3481
   7.000   1.3533   0.02317   0.01437  -0.1352  0.2424  1.0000  -3.3854   0.0000   0.0000   0.0000   0.3414
   7.500   1.3842   0.02520   0.01630  -0.1306  0.1875  1.0000  -3.7312   0.0000   0.0000   0.0000   0.3352
   8.000   1.4107   0.02754   0.01856  -0.1256  0.1384  1.0000  -4.0571   0.0000   0.0000   0.0000   0.3292
   8.500   1.4289   0.03038   0.02135  -0.1194  0.0961  1.0000  -4.3254   0.0000   0.0000   0.0000   0.3230
   9.000   1.4372   0.03405   0.02501  -0.1120  0.0686  1.0000  -4.5387   0.0000   0.0000   0.0000   0.3167
   9.500   1.4435   0.03820   0.02933  -0.1047  0.0555  1.0000  -4.7415   0.0000   0.0000   0.0000   0.3105
  10.000   1.4523   0.04245   0.03383  -0.0986  0.0475  1.0000  -4.9821   0.0000   0.0000   0.0000   0.3051
  10.500   1.4642   0.04683   0.03857  -0.0933  0.0417  1.0000  -5.2320   0.0000   0.0000   0.0000   0.3002
  11.000   1.4777   0.05241   0.04441  -0.0887  0.0389  1.0000  -5.4597   0.0000   0.0000   0.0000   0.2958
  11.500   1.4823   0.05877   0.05147  -0.0840  0.0373  1.0000  -5.5897   0.0000   0.0000   0.0000   0.2916
  12.000   1.4700   0.06639   0.05978  -0.0797  0.0363  1.0000  -5.6819   0.0000   0.0000   0.0000   0.2884
  12.500   1.4437   0.07550   0.06954  -0.0774  0.0358  1.0000  -5.6786   0.0000   0.0000   0.0000   0.2870
  13.000   1.4074   0.08657   0.08119  -0.0782  0.0357  1.0000  -5.5894   0.0000   0.0000   0.0000   0.2881
  13.500   1.3645   0.10018   0.09532  -0.0834  0.0359  1.0000  -5.4113   0.0000   0.0000   0.0000   0.2929
  14.000   1.3174   0.11727   0.11285  -0.0937  0.0364  1.0000  -5.1212   0.0000   0.0000   0.0000   0.3021
  14.500   1.2661   0.13946   0.13535  -0.1097  0.0373  1.0000  -4.6386   0.0000   0.0000   0.0000   0.3172
  15.000   1.2224   0.16463   0.16058  -0.1272  0.0385  1.0000  -3.9827   0.0000   0.0000   0.0000   0.3346
  15.500   1.2082   0.18265   0.17855  -0.1380  0.0391  1.0000  -3.5912   0.0000   0.0000   0.0000   0.3444
  16.000   1.1919   0.20710   0.20281  -0.1540  0.0433  1.0000  -2.8253   0.0000   0.0000   0.0000   0.3596
  16.500   1.1997   0.21866   0.21436  -0.1606  0.0465  1.0000  -2.6953   0.0000   0.0000   0.0000   0.3636


