xflr5 v6.61

 Calculated polar for: BLD_100

 1 1 Reynolds number fixed          Mach number fixed         

 xtrf =   1.000 (top)        1.000 (bottom)
 Mach =   0.200     Re =     0.070 e 6     Ncrit =   7.000

  alpha     CL        CD       CDp       Cm    Top Xtr Bot Xtr   Cpmin    Chinge    XCp    
 ------- -------- --------- --------- -------- ------- ------- -------- --------- ---------
 -22.000  -0.7691   0.27515   0.26845   0.0584  1.0000  0.0263  -1.6394   0.0000   0.0000   0.0000   0.3129
 -21.500  -0.7510   0.26853   0.26182   0.0544  1.0000  0.0274  -1.5936   0.0000   0.0000   0.0000   0.3099
 -21.000  -0.7328   0.26256   0.25582   0.0501  1.0000  0.0286  -1.5693   0.0000   0.0000   0.0000   0.3064
 -20.500  -0.7145   0.25662   0.24987   0.0457  1.0000  0.0300  -1.5538   0.0000   0.0000   0.0000   0.3026
 -20.000  -0.6961   0.25092   0.24416   0.0412  1.0000  0.0314  -1.5499   0.0000   0.0000   0.0000   0.2983
 -19.500  -0.6784   0.24652   0.23977   0.0361  1.0000  0.0324  -1.5758   0.0000   0.0000   0.0000   0.2928
 -19.000  -0.6636   0.24426   0.23753   0.0306  1.0000  0.0328  -1.6266   0.0000   0.0000   0.0000   0.2861
 -18.500  -0.6428   0.23391   0.22719   0.0278  1.0000  0.0335  -1.5739   0.0000   0.0000   0.0000   0.2837
 -18.000  -0.6235   0.22605   0.21931   0.0250  1.0000  0.0353  -1.5074   0.0000   0.0000   0.0000   0.2809
 -17.500  -0.6053   0.21982   0.21308   0.0214  1.0000  0.0376  -1.4890   0.0000   0.0000   0.0000   0.2765
 -17.000  -0.5877   0.21406   0.20733   0.0174  1.0000  0.0400  -1.4997   0.0000   0.0000   0.0000   0.2711
 -16.500  -0.5729   0.21034   0.20363   0.0124  1.0000  0.0413  -1.5622   0.0000   0.0000   0.0000   0.2636
 -16.000  -0.5637   0.20871   0.20206   0.0071  1.0000  0.0417  -1.6509   0.0000   0.0000   0.0000   0.2550
 -15.500  -0.5369   0.19510   0.18843   0.0066  1.0000  0.0435  -1.5006   0.0000   0.0000   0.0000   0.2547
 -15.000  -0.5194   0.18841   0.18175   0.0038  1.0000  0.0459  -1.4552   0.0000   0.0000   0.0000   0.2500
 -14.500  -0.5033   0.18228   0.17563   0.0006  1.0000  0.0486  -1.4404   0.0000   0.0000   0.0000   0.2441
 -14.000  -0.4911   0.17775   0.17115  -0.0037  1.0000  0.0508  -1.4896   0.0000   0.0000   0.0000   0.2358
 -13.500  -0.4877   0.17591   0.16937  -0.0088  1.0000  0.0515  -1.6165   0.0000   0.0000   0.0000   0.2257
 -13.000  -0.4587   0.16304   0.15648  -0.0082  1.0000  0.0551  -1.4668   0.0000   0.0000   0.0000   0.2257
 -12.500  -0.4451   0.15694   0.15041  -0.0110  1.0000  0.0592  -1.4759   0.0000   0.0000   0.0000   0.2193
 -12.000  -0.4404   0.15346   0.14701  -0.0156  1.0000  0.0615  -1.5785   0.0000   0.0000   0.0000   0.2089
 -11.500  -0.4237   0.14485   0.13845  -0.0171  1.0000  0.0632  -1.5529   0.0000   0.0000   0.0000   0.2041
 -11.000  -0.4073   0.13754   0.13116  -0.0182  1.0000  0.0670  -1.4990   0.0000   0.0000   0.0000   0.1999
 -10.500  -0.3992   0.13218   0.12587  -0.0213  1.0000  0.0713  -1.5373   0.0000   0.0000   0.0000   0.1914
 -10.000  -0.3123   0.12105   0.11511  -0.0289  1.0000  0.0789  -1.3061   0.0000   0.0000   0.0000   0.1535
  -9.500  -0.3187   0.11702   0.11119  -0.0318  1.0000  0.0832  -1.3972   0.0000   0.0000   0.0000   0.1465
  -9.000  -0.3025   0.10878   0.10301  -0.0309  1.0000  0.0882  -1.3180   0.0000   0.0000   0.0000   0.1442
  -8.500  -0.3072   0.10408   0.09845  -0.0325  1.0000  0.0938  -1.3888   0.0000   0.0000   0.0000   0.1411
  -8.000  -0.3049   0.09751   0.09200  -0.0320  1.0000  0.0966  -1.4068   0.0000   0.0000   0.0000   0.1422
  -7.500  -0.3043   0.09193   0.08655  -0.0304  1.0000  0.1026  -1.4030   0.0000   0.0000   0.0000   0.1476
  -7.000  -0.3365   0.08982   0.08473  -0.0290  1.0000  0.1056  -1.5272   0.0000   0.0000   0.0000   0.1619
  -6.000  -0.3660   0.08188   0.07666  -0.0287  1.0000  0.1125  -1.6529   0.0000   0.0000   0.0000   0.1694
  -5.500  -0.3608   0.07615   0.07102  -0.0319  1.0000  0.1196  -1.6939   0.0000   0.0000   0.0000   0.1597
  -5.000  -0.3475   0.07028   0.06518  -0.0338  1.0000  0.1315  -1.6758   0.0000   0.0000   0.0000   0.1510
  -3.500  -0.1891   0.04013   0.03332  -0.0622  1.0000  0.0718  -2.1461   0.0000   0.0000   0.0000  -0.0823
  -3.000  -0.1229   0.03279   0.02495  -0.0674  1.0000  0.0710  -2.1615   0.0000   0.0000   0.0000  -0.3038
  -2.500  -0.0479   0.02784   0.01898  -0.0726  0.9970  0.0790  -2.0033   0.0000   0.0000   0.0000  -1.2765
  -2.000   0.0472   0.02418   0.01434  -0.0801  0.9863  0.0978  -1.7411   0.0000   0.0000   0.0000   1.9569
  -1.500   0.1344   0.02223   0.01217  -0.0863  0.9716  0.1426  -1.4006   0.0000   0.0000   0.0000   0.8949
  -1.000   0.2224   0.02071   0.01100  -0.0927  0.9567  0.2730  -1.0621   0.0000   0.0000   0.0000   0.6679
  -0.500   0.2940   0.01836   0.01032  -0.0950  0.9374  1.0000  -0.7677   0.0000   0.0000   0.0000   0.5736
   0.000   0.3740   0.01868   0.01003  -0.0997  0.9152  1.0000  -0.5436   0.0000   0.0000   0.0000   0.5161
   0.500   0.4518   0.01887   0.00987  -0.1036  0.8927  1.0000  -0.5931   0.0000   0.0000   0.0000   0.4784
   1.000   0.5242   0.01895   0.00976  -0.1061  0.8693  1.0000  -0.6430   0.0000   0.0000   0.0000   0.4511
   1.500   0.5931   0.01897   0.00967  -0.1076  0.8455  1.0000  -0.6941   0.0000   0.0000   0.0000   0.4298
   2.000   0.6591   0.01897   0.00964  -0.1084  0.8213  1.0000  -0.7474   0.0000   0.0000   0.0000   0.4124
   2.500   0.7173   0.01921   0.00993  -0.1078  0.7936  1.0000  -0.7999   0.0000   0.0000   0.0000   0.3979
   3.000   0.7771   0.01939   0.01019  -0.1074  0.7676  1.0000  -0.8770   0.0000   0.0000   0.0000   0.3853
   3.500   0.8363   0.01964   0.01058  -0.1067  0.7422  1.0000  -1.1259   0.0000   0.0000   0.0000   0.3743
   4.000   0.8898   0.02022   0.01141  -0.1054  0.7139  1.0000  -1.4187   0.0000   0.0000   0.0000   0.3647
   4.500   0.9458   0.02072   0.01215  -0.1041  0.6872  1.0000  -1.7810   0.0000   0.0000   0.0000   0.3559
   5.000   0.9982   0.02142   0.01322  -0.1024  0.6575  1.0000  -2.1954   0.0000   0.0000   0.0000   0.3479
   5.500   1.0483   0.02108   0.01306  -0.0980  0.6040  1.0000  -2.6429   0.0000   0.0000   0.0000   0.3383
   6.000   1.0837   0.02070   0.01261  -0.0908  0.5050  1.0000  -3.0913   0.0000   0.0000   0.0000   0.3279
   6.500   1.0956   0.02267   0.01356  -0.0819  0.2514  1.0000  -3.3739   0.0000   0.0000   0.0000   0.3181
   7.000   1.0951   0.02871   0.01811  -0.0744  0.0963  1.0000  -3.4978   0.0000   0.0000   0.0000   0.3109
   7.500   1.1140   0.03264   0.02208  -0.0687  0.0739  1.0000  -3.7496   0.0000   0.0000   0.0000   0.3040
   8.000   1.1537   0.03672   0.02626  -0.0651  0.0602  1.0000  -4.0771   0.0000   0.0000   0.0000   0.2982
   8.500   1.2084   0.04215   0.03204  -0.0637  0.0510  1.0000  -4.4152   0.0000   0.0000   0.0000   0.2939
   9.000   1.2553   0.04944   0.03966  -0.0624  0.0462  1.0000  -4.7018   0.0000   0.0000   0.0000   0.2903
   9.500   1.2670   0.05588   0.04725  -0.0567  0.0442  1.0000  -4.8039   0.0000   0.0000   0.0000   0.2848
  10.000   1.2640   0.06346   0.05569  -0.0510  0.0440  1.0000  -4.8347   0.0000   0.0000   0.0000   0.2799
  10.500   1.2417   0.07080   0.06367  -0.0449  0.0443  1.0000  -4.8000   0.0000   0.0000   0.0000   0.2752
  11.500   1.1723   0.08825   0.08206  -0.0409  0.0452  1.0000  -4.6107   0.0000   0.0000   0.0000   0.2727
  12.000   1.1381   0.09940   0.09348  -0.0442  0.0457  1.0000  -4.4808   0.0000   0.0000   0.0000   0.2759
  12.500   1.0913   0.11408   0.10851  -0.0536  0.0470  1.0000  -4.1682   0.0000   0.0000   0.0000   0.2857
  13.000   1.0300   0.14137   0.13589  -0.0748  0.0517  1.0000  -3.3225   0.0000   0.0000   0.0000   0.3092
  13.500   1.0261   0.15475   0.14922  -0.0811  0.0545  1.0000  -3.1486   0.0000   0.0000   0.0000   0.3152
  15.500   1.0355   0.20933   0.20364  -0.1142  0.1108  1.0000  -2.1267   0.0000   0.0000   0.0000   0.3449
  16.000   1.0481   0.21732   0.21161  -0.1183  0.1035  1.0000  -2.1251   0.0000   0.0000   0.0000   0.3467
  16.500   1.0740   0.22711   0.22144  -0.1187  0.0958  1.0000  -2.2342   0.0000   0.0000   0.0000   0.3436
  17.000   1.0739   0.23236   0.22663  -0.1273  0.0893  1.0000  -2.1007   0.0000   0.0000   0.0000   0.3508
  17.500   1.0960   0.24192   0.23622  -0.1289  0.0852  1.0000  -2.2031   0.0000   0.0000   0.0000   0.3492


