xflr5 v6.61

 Calculated polar for: BLD_25

 1 1 Reynolds number fixed          Mach number fixed         

 xtrf =   1.000 (top)        1.000 (bottom)
 Mach =   0.200     Re =     0.100 e 6     Ncrit =   9.000

  alpha     CL        CD       CDp       Cm    Top Xtr Bot Xtr   Cpmin    Chinge    XCp    
 ------- -------- --------- --------- -------- ------- ------- -------- --------- ---------
 -18.000  -0.5436   0.22294   0.21694  -0.0014  1.0000  0.0293  -1.4349   0.0000   0.0000   0.0000   0.2370
 -17.500  -0.5277   0.21652   0.21054  -0.0034  1.0000  0.0304  -1.3692   0.0000   0.0000   0.0000   0.2335
 -17.000  -0.5124   0.21072   0.20476  -0.0056  1.0000  0.0317  -1.3251   0.0000   0.0000   0.0000   0.2292
 -16.500  -0.4975   0.20502   0.19908  -0.0079  1.0000  0.0331  -1.2904   0.0000   0.0000   0.0000   0.2246
 -16.000  -0.4831   0.19936   0.19345  -0.0102  1.0000  0.0347  -1.2633   0.0000   0.0000   0.0000   0.2196
 -15.500  -0.4696   0.19435   0.18847  -0.0129  1.0000  0.0365  -1.3028   0.0000   0.0000   0.0000   0.2136
 -15.000  -0.4622   0.19217   0.18635  -0.0167  1.0000  0.0373  -1.4169   0.0000   0.0000   0.0000   0.2054
 -14.500  -0.4468   0.18394   0.17817  -0.0178  1.0000  0.0379  -1.4080   0.0000   0.0000   0.0000   0.2017
 -14.000  -0.4303   0.17626   0.17048  -0.0182  1.0000  0.0396  -1.3368   0.0000   0.0000   0.0000   0.1995
 -13.500  -0.4174   0.17042   0.16468  -0.0195  1.0000  0.0415  -1.3276   0.0000   0.0000   0.0000   0.1953
 -13.000  -0.4059   0.16484   0.15914  -0.0210  1.0000  0.0436  -1.3420   0.0000   0.0000   0.0000   0.1904
 -12.500  -0.3980   0.16059   0.15495  -0.0234  1.0000  0.0455  -1.4081   0.0000   0.0000   0.0000   0.1837
 -12.000  -0.3994   0.15879   0.15323  -0.0265  1.0000  0.0460  -1.5286   0.0000   0.0000   0.0000   0.1767
 -11.500  -0.3781   0.14811   0.14260  -0.0253  1.0000  0.0474  -1.4185   0.0000   0.0000   0.0000   0.1759
 -11.000  -0.3658   0.14184   0.13637  -0.0253  1.0000  0.0496  -1.3605   0.0000   0.0000   0.0000   0.1740
 -10.500  -0.3570   0.13638   0.13098  -0.0258  1.0000  0.0523  -1.3477   0.0000   0.0000   0.0000   0.1710
 -10.000  -0.3531   0.13199   0.12667  -0.0272  1.0000  0.0549  -1.3885   0.0000   0.0000   0.0000   0.1668
  -9.750  -0.3563   0.13094   0.12568  -0.0284  1.0000  0.0555  -1.4470   0.0000   0.0000   0.0000   0.1644
  -9.500  -0.3619   0.13016   0.12498  -0.0295  1.0000  0.0557  -1.5113   0.0000   0.0000   0.0000   0.1629
  -9.250  -0.3680   0.12920   0.12410  -0.0304  1.0000  0.0559  -1.5744   0.0000   0.0000   0.0000   0.1621
  -9.000  -0.3420   0.12071   0.11553  -0.0272  1.0000  0.0576  -1.3799   0.0000   0.0000   0.0000   0.1647
  -8.750  -0.3372   0.11781   0.11267  -0.0265  1.0000  0.0590  -1.3412   0.0000   0.0000   0.0000   0.1658
  -8.500  -0.3346   0.11529   0.11020  -0.0261  1.0000  0.0606  -1.3236   0.0000   0.0000   0.0000   0.1667
  -8.250  -0.3338   0.11302   0.10798  -0.0258  1.0000  0.0625  -1.3207   0.0000   0.0000   0.0000   0.1677
  -8.000  -0.3367   0.11131   0.10634  -0.0257  1.0000  0.0644  -1.3522   0.0000   0.0000   0.0000   0.1688
  -7.750  -0.3467   0.11063   0.10576  -0.0257  1.0000  0.0653  -1.4240   0.0000   0.0000   0.0000   0.1714
  -7.500  -0.3608   0.11028   0.10551  -0.0249  1.0000  0.0656  -1.4970   0.0000   0.0000   0.0000   0.1770
  -7.250  -0.3747   0.10974   0.10509  -0.0244  1.0000  0.0658  -1.5707   0.0000   0.0000   0.0000   0.1814
  -7.000  -0.3424   0.10216   0.09746  -0.0214  1.0000  0.0697  -1.3902   0.0000   0.0000   0.0000   0.1836
  -6.750  -0.3474   0.10045   0.09582  -0.0196  1.0000  0.0717  -1.4016   0.0000   0.0000   0.0000   0.1898
  -6.500  -0.3567   0.09915   0.09461  -0.0179  1.0000  0.0735  -1.4335   0.0000   0.0000   0.0000   0.1963
  -6.250  -0.3650   0.09808   0.09364  -0.0197  1.0000  0.0751  -1.5114   0.0000   0.0000   0.0000   0.1929
  -6.000  -0.3665   0.09675   0.09239  -0.0277  1.0000  0.0758  -1.6507   0.0000   0.0000   0.0000   0.1715
  -5.750  -0.3629   0.09215   0.08783  -0.0189  1.0000  0.0774  -1.5264   0.0000   0.0000   0.0000   0.1951
  -5.500  -0.3593   0.08949   0.08522  -0.0172  1.0000  0.0795  -1.4954   0.0000   0.0000   0.0000   0.1994
  -5.250  -0.3558   0.08697   0.08275  -0.0178  1.0000  0.0822  -1.4995   0.0000   0.0000   0.0000   0.1974
  -4.750  -0.3365   0.08052   0.07637  -0.0276  1.0000  0.0876  -1.5990   0.0000   0.0000   0.0000   0.1655
  -4.500  -0.3315   0.07786   0.07375  -0.0250  1.0000  0.0899  -1.5481   0.0000   0.0000   0.0000   0.1721
  -4.000  -0.2924   0.07047   0.06634  -0.0363  1.0000  0.0988  -1.5873   0.0000   0.0000   0.0000   0.1236
  -3.750  -0.2788   0.06772   0.06356  -0.0366  1.0000  0.1032  -1.5443   0.0000   0.0000   0.0000   0.1161
  -3.500  -0.2458   0.06329   0.05906  -0.0452  1.0000  0.1101  -1.5587   0.0000   0.0000   0.0000   0.0633
  -3.250  -0.2060   0.05895   0.05460  -0.0546  1.0000  0.1199  -1.5581   0.0000   0.0000   0.0000  -0.0180
  -3.000  -0.1688   0.05511   0.05065  -0.0616  1.0000  0.1305  -1.5298   0.0000   0.0000   0.0000  -0.1185
  -2.250   0.0555   0.03215   0.02561  -0.1030  1.0000  0.0740  -1.8595   0.0000   0.0000   0.0000   2.1189
  -2.000   0.1158   0.02805   0.02065  -0.1101  1.0000  0.0694  -1.8488   0.0000   0.0000   0.0000   1.2059
  -1.750   0.1625   0.02594   0.01789  -0.1138  1.0000  0.0715  -1.8193   0.0000   0.0000   0.0000   0.9537
  -1.500   0.2049   0.02448   0.01607  -0.1166  1.0000  0.0800  -1.7621   0.0000   0.0000   0.0000   0.8214
  -1.250   0.2421   0.02373   0.01522  -0.1186  1.0000  0.1028  -1.6699   0.0000   0.0000   0.0000   0.7417
  -1.000   0.2872   0.02368   0.01521  -0.1225  0.9964  0.1453  -1.4584   0.0000   0.0000   0.0000   0.6776
  -0.750   0.3390   0.02319   0.01485  -0.1273  0.9908  0.1967  -1.2383   0.0000   0.0000   0.0000   0.6261
  -0.500   0.3912   0.02280   0.01479  -0.1324  0.9854  0.2935  -1.0308   0.0000   0.0000   0.0000   0.5886
  -0.250   0.4429   0.02219   0.01487  -0.1373  0.9801  0.4689  -0.8291   0.0000   0.0000   0.0000   0.5598
   0.000   0.4726   0.02102   0.01474  -0.1367  0.9705  1.0000  -0.6843   0.0000   0.0000   0.0000   0.5387
   0.250   0.5192   0.02125   0.01464  -0.1404  0.9605  1.0000  -0.6018   0.0000   0.0000   0.0000   0.5196
   0.500   0.5605   0.02137   0.01454  -0.1430  0.9483  1.0000  -0.6356   0.0000   0.0000   0.0000   0.5041
   1.000   0.6446   0.02134   0.01425  -0.1481  0.9245  1.0000  -0.7114   0.0000   0.0000   0.0000   0.4782
   1.250   0.6869   0.02118   0.01401  -0.1505  0.9128  1.0000  -0.7542   0.0000   0.0000   0.0000   0.4672
   1.500   0.7293   0.02091   0.01368  -0.1527  0.9013  1.0000  -0.7993   0.0000   0.0000   0.0000   0.4572
   1.750   0.7720   0.02050   0.01324  -0.1547  0.8898  1.0000  -0.8489   0.0000   0.0000   0.0000   0.4480
   2.000   0.8148   0.01993   0.01267  -0.1565  0.8784  1.0000  -0.9051   0.0000   0.0000   0.0000   0.4394
   2.250   0.8575   0.01921   0.01199  -0.1580  0.8671  1.0000  -0.9666   0.0000   0.0000   0.0000   0.4314
   2.500   0.8935   0.01871   0.01151  -0.1583  0.8515  1.0000  -1.0226   0.0000   0.0000   0.0000   0.4242
   2.750   0.9366   0.01799   0.01083  -0.1598  0.8380  1.0000  -1.0934   0.0000   0.0000   0.0000   0.4173
   3.000   0.9788   0.01729   0.01019  -0.1611  0.8224  1.0000  -1.1689   0.0000   0.0000   0.0000   0.4110
   3.250   1.0195   0.01669   0.00962  -0.1620  0.8033  1.0000  -1.2476   0.0000   0.0000   0.0000   0.4051
   3.500   1.0562   0.01632   0.00926  -0.1624  0.7796  1.0000  -1.3403   0.0000   0.0000   0.0000   0.3996
   3.750   1.0900   0.01614   0.00910  -0.1622  0.7521  1.0000  -1.4403   0.0000   0.0000   0.0000   0.3945
   4.000   1.1220   0.01611   0.00902  -0.1618  0.7220  1.0000  -1.5393   0.0000   0.0000   0.0000   0.3896
   4.250   1.1513   0.01623   0.00906  -0.1610  0.6896  1.0000  -1.6354   0.0000   0.0000   0.0000   0.3848
   4.500   1.1781   0.01649   0.00923  -0.1597  0.6558  1.0000  -1.7708   0.0000   0.0000   0.0000   0.3803
   4.750   1.2032   0.01686   0.00955  -0.1582  0.6215  1.0000  -1.9237   0.0000   0.0000   0.0000   0.3760
   5.000   1.2268   0.01731   0.00988  -0.1566  0.5870  1.0000  -2.0761   0.0000   0.0000   0.0000   0.3718
   5.250   1.2490   0.01783   0.01029  -0.1547  0.5518  1.0000  -2.2274   0.0000   0.0000   0.0000   0.3677
   5.500   1.2695   0.01841   0.01077  -0.1526  0.5155  1.0000  -2.3989   0.0000   0.0000   0.0000   0.3637
   5.750   1.2892   0.01906   0.01130  -0.1504  0.4790  1.0000  -2.5746   0.0000   0.0000   0.0000   0.3599
   6.000   1.3078   0.01977   0.01188  -0.1481  0.4424  1.0000  -2.7496   0.0000   0.0000   0.0000   0.3561
   6.250   1.3240   0.02051   0.01250  -0.1454  0.4026  1.0000  -2.9190   0.0000   0.0000   0.0000   0.3524
   6.500   1.3380   0.02128   0.01312  -0.1424  0.3606  1.0000  -3.0839   0.0000   0.0000   0.0000   0.3487
   6.750   1.3508   0.02214   0.01390  -0.1394  0.3185  1.0000  -3.2464   0.0000   0.0000   0.0000   0.3451
   7.000   1.3637   0.02310   0.01469  -0.1365  0.2805  1.0000  -3.4100   0.0000   0.0000   0.0000   0.3416
   7.250   1.3778   0.02415   0.01565  -0.1339  0.2484  1.0000  -3.5759   0.0000   0.0000   0.0000   0.3384
   7.500   1.3918   0.02528   0.01673  -0.1313  0.2192  1.0000  -3.7387   0.0000   0.0000   0.0000   0.3352
   7.750   1.4037   0.02651   0.01787  -0.1285  0.1909  1.0000  -3.8932   0.0000   0.0000   0.0000   0.3320
   8.000   1.4141   0.02784   0.01914  -0.1254  0.1634  1.0000  -4.0363   0.0000   0.0000   0.0000   0.3288
   8.250   1.4219   0.02940   0.02062  -0.1220  0.1376  1.0000  -4.1571   0.0000   0.0000   0.0000   0.3256
   8.500   1.4267   0.03114   0.02230  -0.1182  0.1135  1.0000  -4.2505   0.0000   0.0000   0.0000   0.3223
   8.750   1.4307   0.03324   0.02432  -0.1143  0.0948  1.0000  -4.3229   0.0000   0.0000   0.0000   0.3190
   9.000   1.4368   0.03546   0.02651  -0.1107  0.0812  1.0000  -4.4175   0.0000   0.0000   0.0000   0.3158
   9.250   1.4483   0.03784   0.02892  -0.1079  0.0723  1.0000  -4.5258   0.0000   0.0000   0.0000   0.3129
   9.500   1.4631   0.04026   0.03133  -0.1058  0.0659  1.0000  -4.6633   0.0000   0.0000   0.0000   0.3104
   9.750   1.4743   0.04226   0.03347  -0.1033  0.0604  1.0000  -4.8024   0.0000   0.0000   0.0000   0.3077
  10.000   1.4918   0.04506   0.03649  -0.1018  0.0565  1.0000  -4.9452   0.0000   0.0000   0.0000   0.3055
  10.250   1.5071   0.04801   0.03981  -0.0998  0.0541  1.0000  -5.0496   0.0000   0.0000   0.0000   0.3031
  10.500   1.5182   0.05106   0.04317  -0.0974  0.0523  1.0000  -5.1456   0.0000   0.0000   0.0000   0.3007
  10.750   1.5243   0.05421   0.04660  -0.0947  0.0511  1.0000  -5.2259   0.0000   0.0000   0.0000   0.2983
  11.000   1.5265   0.05754   0.05022  -0.0918  0.0502  1.0000  -5.3047   0.0000   0.0000   0.0000   0.2960
  11.250   1.5242   0.06117   0.05412  -0.0888  0.0497  1.0000  -5.3752   0.0000   0.0000   0.0000   0.2937
  11.500   1.5167   0.06502   0.05828  -0.0855  0.0493  1.0000  -5.4123   0.0000   0.0000   0.0000   0.2915
  11.750   1.5039   0.06898   0.06256  -0.0823  0.0492  1.0000  -5.4189   0.0000   0.0000   0.0000   0.2895
  12.000   1.4871   0.07309   0.06699  -0.0795  0.0492  1.0000  -5.4013   0.0000   0.0000   0.0000   0.2879
  12.250   1.4669   0.07749   0.07171  -0.0773  0.0493  1.0000  -5.3603   0.0000   0.0000   0.0000   0.2867
  12.500   1.4431   0.08240   0.07695  -0.0761  0.0496  1.0000  -5.2907   0.0000   0.0000   0.0000   0.2864
  12.750   1.4155   0.08817   0.08305  -0.0763  0.0500  1.0000  -5.1847   0.0000   0.0000   0.0000   0.2872
  13.000   1.3790   0.09568   0.09092  -0.0789  0.0506  1.0000  -4.9994   0.0000   0.0000   0.0000   0.2901
  13.250   1.3378   0.10542   0.10099  -0.0845  0.0516  1.0000  -4.7478   0.0000   0.0000   0.0000   0.2957
  13.500   1.2955   0.11752   0.11335  -0.0931  0.0528  1.0000  -4.4410   0.0000   0.0000   0.0000   0.3041
  13.750   1.2544   0.13223   0.12821  -0.1043  0.0545  1.0000  -4.0675   0.0000   0.0000   0.0000   0.3154
  14.000   1.2255   0.14621   0.14214  -0.1141  0.0562  1.0000  -3.7497   0.0000   0.0000   0.0000   0.3253
  14.250   1.2125   0.15636   0.15227  -0.1202  0.0572  1.0000  -3.5535   0.0000   0.0000   0.0000   0.3312
  14.500   1.2089   0.16346   0.15936  -0.1236  0.0579  1.0000  -3.4623   0.0000   0.0000   0.0000   0.3341
  14.750   0.9419   0.16656   0.16259  -0.1029  0.0690  1.0000  -2.3373   0.0000   0.0000   0.0000   0.3429
  15.000   1.1897   0.19164   0.18748  -0.1387  0.0781  1.0000  -2.7318   0.0000   0.0000   0.0000   0.3486
  15.500   0.8995   0.19428   0.19031  -0.1147  0.1188  1.0000  -1.6149   0.0000   0.0000   0.0000   0.3616
  16.000   0.8786   0.20032   0.19634  -0.1194  0.1133  1.0000  -1.4613   0.0000   0.0000   0.0000   0.3697
  16.500   0.9061   0.20910   0.20519  -0.1177  0.1087  1.0000  -1.5825   0.0000   0.0000   0.0000   0.3628
  17.000   0.8776   0.21364   0.20970  -0.1238  0.1039  1.0000  -1.3754   0.0000   0.0000   0.0000   0.3736
  17.500   0.8948   0.22098   0.21712  -0.1232  0.0989  1.0000  -1.4882   0.0000   0.0000   0.0000   0.3694
  18.000   0.8806   0.22688   0.22300  -0.1279  0.0951  1.0000  -1.3585   0.0000   0.0000   0.0000   0.3764
  18.500   0.8877   0.23330   0.22947  -0.1291  0.0897  1.0000  -1.3996   0.0000   0.0000   0.0000   0.3758
  19.000   0.8867   0.24028   0.23646  -0.1318  0.0864  1.0000  -1.3553   0.0000   0.0000   0.0000   0.3783
  19.500   0.8977   0.24701   0.24325  -0.1322  0.0786  1.0000  -1.4432   0.0000   0.0000   0.0000   0.3760
  20.000   0.8920   0.25354   0.24978  -0.1360  0.0762  1.0000  -1.3635   0.0000   0.0000   0.0000   0.3806


