xflr5 v6.61

 Calculated polar for: BLD_100

 1 1 Reynolds number fixed          Mach number fixed         

 xtrf =   1.000 (top)        1.000 (bottom)
 Mach =   0.200     Re =     0.050 e 6     Ncrit =   7.000

  alpha     CL        CD       CDp       Cm    Top Xtr Bot Xtr   Cpmin    Chinge    XCp    
 ------- -------- --------- --------- -------- ------- ------- -------- --------- ---------
 -27.500  -0.9570   0.33769   0.33006   0.1112  1.0000  0.0260  -1.7651   0.0000   0.0000   0.0000   0.3453
 -27.000  -0.9413   0.33120   0.32353   0.1066  1.0000  0.0269  -1.7218   0.0000   0.0000   0.0000   0.3432
 -26.500  -0.9252   0.32561   0.31790   0.1016  1.0000  0.0279  -1.6944   0.0000   0.0000   0.0000   0.3406
 -26.000  -0.9087   0.32017   0.31241   0.0966  1.0000  0.0290  -1.6731   0.0000   0.0000   0.0000   0.3379
 -25.500  -0.8919   0.31479   0.30700   0.0916  1.0000  0.0302  -1.6554   0.0000   0.0000   0.0000   0.3351
 -25.000  -0.8748   0.30967   0.30186   0.0865  1.0000  0.0314  -1.6442   0.0000   0.0000   0.0000   0.3320
 -24.500  -0.8576   0.30589   0.29806   0.0809  1.0000  0.0324  -1.6526   0.0000   0.0000   0.0000   0.3282
 -24.000  -0.8419   0.30482   0.29698   0.0747  1.0000  0.0328  -1.7022   0.0000   0.0000   0.0000   0.3235
 -23.500  -0.8234   0.29485   0.28700   0.0710  1.0000  0.0334  -1.6645   0.0000   0.0000   0.0000   0.3214
 -23.000  -0.8053   0.28689   0.27900   0.0672  1.0000  0.0347  -1.6117   0.0000   0.0000   0.0000   0.3193
 -22.500  -0.7874   0.28081   0.27291   0.0628  1.0000  0.0362  -1.5888   0.0000   0.0000   0.0000   0.3162
 -22.000  -0.7694   0.27502   0.26710   0.0583  1.0000  0.0379  -1.5767   0.0000   0.0000   0.0000   0.3128
 -21.500  -0.7513   0.26950   0.26157   0.0536  1.0000  0.0396  -1.5741   0.0000   0.0000   0.0000   0.3090
 -21.000  -0.7336   0.26511   0.25715   0.0486  1.0000  0.0409  -1.5916   0.0000   0.0000   0.0000   0.3044
 -20.500  -0.7181   0.26302   0.25508   0.0430  1.0000  0.0415  -1.6342   0.0000   0.0000   0.0000   0.2987
 -20.000  -0.6983   0.25346   0.24554   0.0397  1.0000  0.0425  -1.5817   0.0000   0.0000   0.0000   0.2960
 -19.500  -0.6789   0.24548   0.23753   0.0365  1.0000  0.0449  -1.5054   0.0000   0.0000   0.0000   0.2934
 -19.000  -0.6606   0.23945   0.23151   0.0326  1.0000  0.0476  -1.4793   0.0000   0.0000   0.0000   0.2893
 -18.500  -0.6430   0.23426   0.22632   0.0281  1.0000  0.0500  -1.4991   0.0000   0.0000   0.0000   0.2843
 -18.000  -0.6282   0.23148   0.22354   0.0230  1.0000  0.0512  -1.5572   0.0000   0.0000   0.0000   0.2775
 -17.500  -0.6104   0.22431   0.21641   0.0193  1.0000  0.0520  -1.5580   0.0000   0.0000   0.0000   0.2729
 -17.000  -0.5893   0.21513   0.20722   0.0170  1.0000  0.0547  -1.4849   0.0000   0.0000   0.0000   0.2705
 -16.500  -0.5716   0.20893   0.20103   0.0136  1.0000  0.0578  -1.4675   0.0000   0.0000   0.0000   0.2657
 -16.000  -0.5560   0.20402   0.19615   0.0095  1.0000  0.0607  -1.4845   0.0000   0.0000   0.0000   0.2593
 -15.500  -0.5473   0.20247   0.19465   0.0043  1.0000  0.0618  -1.5566   0.0000   0.0000   0.0000   0.2507
 -15.000  -0.5218   0.19039   0.18256   0.0034  1.0000  0.0654  -1.4369   0.0000   0.0000   0.0000   0.2493
 -14.500  -0.5061   0.18452   0.17671   0.0002  1.0000  0.0701  -1.4163   0.0000   0.0000   0.0000   0.2435
 -14.000  -0.4989   0.18208   0.17434  -0.0045  1.0000  0.0724  -1.5004   0.0000   0.0000   0.0000   0.2346
 -13.500  -0.4766   0.17192   0.16421  -0.0058  1.0000  0.0753  -1.4474   0.0000   0.0000   0.0000   0.2315
 -13.000  -0.4613   0.16550   0.15779  -0.0082  1.0000  0.0800  -1.4422   0.0000   0.0000   0.0000   0.2260
 -12.500  -0.4561   0.16219   0.15455  -0.0124  1.0000  0.0832  -1.5178   0.0000   0.0000   0.0000   0.2170
 -12.000  -0.4359   0.15297   0.14537  -0.0135  1.0000  0.0867  -1.4689   0.0000   0.0000   0.0000   0.2133
 -11.500  -0.4243   0.14714   0.13958  -0.0159  1.0000  0.0926  -1.4735   0.0000   0.0000   0.0000   0.2070
 -11.000  -0.4160   0.14134   0.13389  -0.0187  1.0000  0.0961  -1.5022   0.0000   0.0000   0.0000   0.1998
 -10.500  -0.4029   0.13490   0.12749  -0.0203  1.0000  0.1041  -1.4765   0.0000   0.0000   0.0000   0.1946
 -10.000  -0.3920   0.12827   0.12092  -0.0221  1.0000  0.1087  -1.4701   0.0000   0.0000   0.0000   0.1888
  -9.500  -0.3858   0.12315   0.11590  -0.0244  1.0000  0.1160  -1.4812   0.0000   0.0000   0.0000   0.1821
  -9.000  -0.3728   0.11601   0.10885  -0.0252  1.0000  0.1214  -1.4486   0.0000   0.0000   0.0000   0.1779
  -8.500  -0.3782   0.11263   0.10565  -0.0282  1.0000  0.1282  -1.5279   0.0000   0.0000   0.0000   0.1715
  -8.000  -0.3620   0.10496   0.09806  -0.0273  1.0000  0.1368  -1.4903   0.0000   0.0000   0.0000   0.1707
  -7.500  -0.3606   0.09963   0.09292  -0.0268  1.0000  0.1452  -1.5033   0.0000   0.0000   0.0000   0.1721
  -6.500  -0.3707   0.09043   0.08414  -0.0264  1.0000  0.1648  -1.5596   0.0000   0.0000   0.0000   0.1762
  -6.000  -0.3688   0.08511   0.07897  -0.0261  1.0000  0.1768  -1.5609   0.0000   0.0000   0.0000   0.1769
  -5.500  -0.3639   0.07962   0.07360  -0.0258  1.0000  0.1900  -1.5508   0.0000   0.0000   0.0000   0.1772
  -5.000  -0.3548   0.07440   0.06844  -0.0300  1.0000  0.2092  -1.5687   0.0000   0.0000   0.0000   0.1636
  -4.500  -0.3397   0.06836   0.06245  -0.0295  1.0000  0.2330  -1.5151   0.0000   0.0000   0.0000   0.1615
  -4.000  -0.3214   0.06260   0.05672  -0.0285  1.0000  0.2685  -1.4422   0.0000   0.0000   0.0000   0.1596
  -3.500  -0.2023   0.04524   0.03787  -0.0589  1.0000  0.0995  -1.9226   0.0000   0.0000   0.0000  -0.0438
  -3.000  -0.1352   0.03750   0.02911  -0.0656  1.0000  0.0978  -1.9573   0.0000   0.0000   0.0000  -0.2392
  -2.500  -0.0675   0.03193   0.02238  -0.0698  1.0000  0.1034  -1.8844   0.0000   0.0000   0.0000  -0.7913
  -2.000  -0.0046   0.02837   0.01789  -0.0719  1.0000  0.1187  -1.7288   0.0000   0.0000   0.0000  -15.5988
  -1.500   0.0506   0.02642   0.01552  -0.0726  1.0000  0.1479  -1.5266   0.0000   0.0000   0.0000   1.6912
  -1.000   0.1054   0.02521   0.01410  -0.0731  1.0000  0.2032  -1.3001   0.0000   0.0000   0.0000   0.9461
  -0.500   0.1910   0.02176   0.01302  -0.0786  0.9888  0.7372  -0.9938   0.0000   0.0000   0.0000   0.6624
   0.000   0.2798   0.02266   0.01280  -0.0859  0.9597  1.0000  -0.6777   0.0000   0.0000   0.0000   0.5570
   0.500   0.3663   0.02365   0.01320  -0.0928  0.9345  1.0000  -0.5364   0.0000   0.0000   0.0000   0.5024
   1.000   0.4435   0.02449   0.01372  -0.0975  0.9070  1.0000  -0.5847   0.0000   0.0000   0.0000   0.4687
   1.500   0.5192   0.02521   0.01427  -0.1016  0.8803  1.0000  -0.6359   0.0000   0.0000   0.0000   0.4440
   2.000   0.5951   0.02576   0.01480  -0.1052  0.8555  1.0000  -0.6917   0.0000   0.0000   0.0000   0.4247
   2.500   0.6577   0.02646   0.01554  -0.1062  0.8279  1.0000  -0.7432   0.0000   0.0000   0.0000   0.4091
   3.000   0.7215   0.02706   0.01629  -0.1071  0.8024  1.0000  -0.8023   0.0000   0.0000   0.0000   0.3957
   3.500   0.7843   0.02762   0.01708  -0.1075  0.7778  1.0000  -0.9634   0.0000   0.0000   0.0000   0.3839
   4.000   0.8452   0.02819   0.01793  -0.1073  0.7533  1.0000  -1.2378   0.0000   0.0000   0.0000   0.3733
   4.500   0.8963   0.02924   0.01937  -0.1059  0.7255  1.0000  -1.5389   0.0000   0.0000   0.0000   0.3640
   5.000   0.9543   0.02985   0.02043  -0.1047  0.6992  1.0000  -1.9310   0.0000   0.0000   0.0000   0.3551
   5.500   1.0071   0.03061   0.02178  -0.1025  0.6686  1.0000  -2.3485   0.0000   0.0000   0.0000   0.3467
   6.000   1.0703   0.02742   0.01901  -0.0951  0.5992  1.0000  -2.9048   0.0000   0.0000   0.0000   0.3332
   6.500   1.0997   0.02576   0.01731  -0.0843  0.4763  1.0000  -3.3228   0.0000   0.0000   0.0000   0.3202
   7.000   1.0849   0.02971   0.01926  -0.0722  0.1807  1.0000  -3.4235   0.0000   0.0000   0.0000   0.3094
   7.500   1.0868   0.03544   0.02427  -0.0655  0.1158  1.0000  -3.5345   0.0000   0.0000   0.0000   0.3026
   8.000   1.1170   0.03994   0.02882  -0.0609  0.0894  1.0000  -3.7980   0.0000   0.0000   0.0000   0.2963
   8.500   1.1873   0.04564   0.03478  -0.0603  0.0724  1.0000  -4.1691   0.0000   0.0000   0.0000   0.2920
   9.000   1.2368   0.05277   0.04248  -0.0588  0.0643  1.0000  -4.4207   0.0000   0.0000   0.0000   0.2881
   9.500   1.2528   0.06031   0.05111  -0.0541  0.0620  1.0000  -4.4837   0.0000   0.0000   0.0000   0.2833
  10.000   1.2472   0.06822   0.05988  -0.0489  0.0614  1.0000  -4.5001   0.0000   0.0000   0.0000   0.2788
  10.500   1.2193   0.07583   0.06813  -0.0435  0.0613  1.0000  -4.4401   0.0000   0.0000   0.0000   0.2748
  11.000   1.1803   0.08454   0.07734  -0.0411  0.0618  1.0000  -4.3211   0.0000   0.0000   0.0000   0.2734
  11.500   1.1380   0.09540   0.08858  -0.0433  0.0629  1.0000  -4.1527   0.0000   0.0000   0.0000   0.2760
  12.000   1.1000   0.10844   0.10184  -0.0494  0.0643  1.0000  -3.9562   0.0000   0.0000   0.0000   0.2823
  12.500   1.0749   0.12219   0.11569  -0.0564  0.0654  1.0000  -3.7835   0.0000   0.0000   0.0000   0.2893
  14.000   0.8242   0.16102   0.15470  -0.0647  0.0848  1.0000  -2.2295   0.0000   0.0000   0.0000   0.3160
  14.500   0.8002   0.17255   0.16620  -0.0711  0.1022  1.0000  -1.8948   0.0000   0.0000   0.0000   0.3264
  15.000   0.7769   0.18585   0.17956  -0.0795  0.1773  1.0000  -1.5148   0.0000   0.0000   0.0000   0.3400
  15.500   0.7931   0.19442   0.18819  -0.0798  0.1706  1.0000  -1.5500   0.0000   0.0000   0.0000   0.3378
  16.000   0.7770   0.19774   0.19150  -0.0829  0.1640  1.0000  -1.4530   0.0000   0.0000   0.0000   0.3434
  16.500   0.7799   0.20401   0.19779  -0.0845  0.1573  1.0000  -1.4404   0.0000   0.0000   0.0000   0.3445
  17.000   0.7854   0.21045   0.20426  -0.0858  0.1478  1.0000  -1.4418   0.0000   0.0000   0.0000   0.3448
  17.500   0.7951   0.21775   0.21163  -0.0867  0.1381  1.0000  -1.4609   0.0000   0.0000   0.0000   0.3441
  18.000   0.7878   0.22156   0.21546  -0.0897  0.1307  1.0000  -1.3849   0.0000   0.0000   0.0000   0.3484
  18.500   0.7915   0.22796   0.22188  -0.0917  0.1253  1.0000  -1.3583   0.0000   0.0000   0.0000   0.3497
  19.000   0.8040   0.23619   0.23015  -0.0924  0.1168  1.0000  -1.3959   0.0000   0.0000   0.0000   0.3482
  19.500   0.7983   0.23994   0.23393  -0.0957  0.1098  1.0000  -1.3329   0.0000   0.0000   0.0000   0.3525
  20.000   0.8029   0.24652   0.24054  -0.0976  0.1044  1.0000  -1.3319   0.0000   0.0000   0.0000   0.3535


